# Test redundant internal optimization
#
! RKS B3LYP  Opt TightSCF SmallPrint

%basis
        Basis "6-31G"
end

%geom
Constraints
{ D 4  0  19  14  330.0   C } # D for Dihedral angle
{ D 0  19  14  12  195.0   C } # D for Dihedral angle
{ D 0  4  3  2   C } # D for Dihedral angle
{ D 4  3  2  1   C } # D for Dihedral angle
{ D 3  2  1  0   C } # D for Dihedral angle
{ D 2  1  0  4   C } # D for Dihedral angle
{ D 1  0  4  3   C } # D for Dihedral angle
{ D 14  15  16  17   C } # D for Dihedral angle
{ D 15  16  17  12   C } # D for Dihedral angle
{ D 16  17  12  14   C } # D for Dihedral angle
{ D 17  12  14  15   C } # D for Dihedral angle
{ D 12  14  15  16   C } # D for Dihedral angle
end
end


#%pal 
#nprocs 8
#end

* xyz 0 1
C  -21.048   26.222   46.251
C  -20.361   27.558   45.944
C  -20.329   28.222   47.341
C  -20.110   27.022   48.296
O  -20.473   25.807   47.535
H  -20.833   25.428   45.533
H  -19.344   27.382   45.576
H  -20.898   28.157   45.201
H  -19.543   28.978   47.434
H  -21.289   28.710   47.548
H  -20.733   27.082   49.195
H  -19.064   26.913   48.597
C  -24.605   25.493   47.131
H  -25.124   25.092   48.016
C  -23.087   25.523   47.341
C  -22.705   24.046   47.087
C  -23.692   23.614   45.974
O  -24.793   24.602   45.981
H  -25.045   26.456   46.864
O  -22.472   26.381   46.366
H  -22.798   25.872   48.338
H  -21.660   23.923   46.789
H  -22.866   23.454   47.997
H  -24.107   22.614   46.144
H  -23.238   23.644   44.979
*
