# Test redundant internal optimization
#
! RKS B3LYP  Opt TightSCF SmallPrint

%basis
        Basis "6-31G"
end

%geom
Constraints
{ D 4  0  15  12  210.0   C } # D for Dihedral angle
{ D 0  15  12  16  90.0   C } # D for Dihedral angle
{ D 0  4  3  2   C } # D for Dihedral angle
{ D 4  3  2  1   C } # D for Dihedral angle
{ D 3  2  1  0   C } # D for Dihedral angle
{ D 2  1  0  4   C } # D for Dihedral angle
{ D 1  0  4  3   C } # D for Dihedral angle
{ D 16  20  19  18   C } # D for Dihedral angle
{ D 20  19  18  17   C } # D for Dihedral angle
{ D 19  18  17  16   C } # D for Dihedral angle
{ D 18  17  16  20   C } # D for Dihedral angle
{ D 17  16  20  19   C } # D for Dihedral angle
{ D 15  12  16  20   C } # D for Dihedral angle
end
end


#%pal 
#nprocs 8
#end

* xyz 0 1
C  -21.048   26.222   46.251
C  -20.361   27.558   45.944
C  -20.329   28.222   47.341
C  -20.110   27.022   48.296
O  -20.473   25.807   47.535
H  -20.833   25.428   45.533
H  -19.344   27.382   45.576
H  -20.898   28.157   45.201
H  -19.543   28.978   47.434
H  -21.289   28.710   47.548
H  -20.733   27.082   49.195
H  -19.064   26.913   48.597
C  -23.389   26.110   45.076
H  -24.291   26.735   45.064
H  -22.789   26.358   44.191
O  -22.586   26.394   46.375
C  -23.823   24.624   44.951
C  -22.618   23.681   45.050
C  -22.376   23.642   46.578
C  -23.808   23.726   47.164
O  -24.675   24.241   46.082
H  -24.419   24.500   44.045
H  -22.886   22.687   44.676
O  -21.381   24.186   44.258
H  -21.845   22.741   46.902
H  -21.781   24.510   46.888
H  -23.871   24.398   48.026
H  -24.200   22.745   47.450
H  -21.095   25.181   44.617
*
