# Test redundant internal optimization
#
! RKS B3LYP  Opt TightSCF SmallPrint

%basis
        Basis "6-31G"
end

%geom
Constraints
{ D 4  0  15  12  120.0   C } # D for Dihedral angle
{ D 0  15  12  16  150.0   C } # D for Dihedral angle
{ D 0  4  3  2   C } # D for Dihedral angle
{ D 4  3  2  1   C } # D for Dihedral angle
{ D 3  2  1  0   C } # D for Dihedral angle
{ D 2  1  0  4   C } # D for Dihedral angle
{ D 1  0  4  3   C } # D for Dihedral angle
{ D 16  20  19  18   C } # D for Dihedral angle
{ D 20  19  18  17   C } # D for Dihedral angle
{ D 19  18  17  16   C } # D for Dihedral angle
{ D 18  17  16  20   C } # D for Dihedral angle
{ D 17  16  20  19   C } # D for Dihedral angle
{ D 15  12  16  20   C } # D for Dihedral angle
end
end


#%pal 
#nprocs 8
#end

* xyz 0 1
C  -21.048   26.222   46.251
C  -20.361   27.558   45.944
C  -20.329   28.222   47.341
C  -20.110   27.022   48.296
O  -20.473   25.807   47.535
H  -20.833   25.428   45.533
H  -19.344   27.382   45.576
H  -20.898   28.157   45.201
H  -19.543   28.978   47.434
H  -21.289   28.710   47.548
H  -20.733   27.082   49.195
H  -19.064   26.913   48.597
C  -23.119   27.818   46.058
H  -23.125   28.416   46.978
H  -22.468   28.318   45.329
O  -22.586   26.394   46.375
C  -24.559   27.804   45.475
C  -24.648   26.911   44.232
C  -24.725   25.501   44.864
C  -25.545   25.739   46.156
O  -25.492   27.192   46.427
H  -24.891   28.832   45.317
H  -25.564   27.135   43.673
O  -23.437   27.076   43.274
H  -25.193   24.764   44.203
H  -23.718   25.142   45.107
H  -25.139   25.198   47.017
H  -26.600   25.473   46.037
H  -22.509   26.857   43.812
*
