# Test redundant internal optimization
#
! RKS B3LYP  Opt TightSCF SmallPrint

%basis
        Basis "6-31G"
end

%geom
Constraints
{ D 4  0  15  12  165.0   C } # D for Dihedral angle
{ D 0  15  12  16  120.0   C } # D for Dihedral angle
{ D 0  4  3  2   C } # D for Dihedral angle
{ D 4  3  2  1   C } # D for Dihedral angle
{ D 3  2  1  0   C } # D for Dihedral angle
{ D 2  1  0  4   C } # D for Dihedral angle
{ D 1  0  4  3   C } # D for Dihedral angle
{ D 16  20  19  18   C } # D for Dihedral angle
{ D 20  19  18  17   C } # D for Dihedral angle
{ D 19  18  17  16   C } # D for Dihedral angle
{ D 18  17  16  20   C } # D for Dihedral angle
{ D 17  16  20  19   C } # D for Dihedral angle
{ D 15  12  16  20   C } # D for Dihedral angle
end
end


#%pal 
#nprocs 8
#end

* xyz 0 1
C  -21.048   26.222   46.251
C  -20.361   27.558   45.944
C  -20.329   28.222   47.341
C  -20.110   27.022   48.296
O  -20.473   25.807   47.535
H  -20.833   25.428   45.533
H  -19.344   27.382   45.576
H  -20.898   28.157   45.201
H  -19.543   28.978   47.434
H  -21.289   28.710   47.548
H  -20.733   27.082   49.195
H  -19.064   26.913   48.597
C  -23.260   27.170   45.210
H  -23.749   28.068   45.609
H  -22.509   27.486   44.475
O  -22.586   26.394   46.375
C  -24.327   26.324   44.463
C  -23.735   25.004   43.954
C  -23.732   24.145   45.241
C  -25.013   24.609   45.977
O  -25.391   25.911   45.384
H  -24.793   26.937   43.690
H  -24.394   24.564   43.197
O  -22.320   25.168   43.336
H  -23.736   23.070   45.034
H  -22.840   24.367   45.840
H  -24.856   24.737   47.053
H  -25.855   23.928   45.821
H  -21.643   25.608   44.077
*
