# Test redundant internal optimization
#
! RKS B3LYP  Opt TightSCF SmallPrint

%basis
        Basis "6-31G"
end

%geom
Constraints
{ D 4  0  15  12  345.0   C } # D for Dihedral angle
{ D 0  15  12  16  135.0   C } # D for Dihedral angle
{ D 0  4  3  2   C } # D for Dihedral angle
{ D 4  3  2  1   C } # D for Dihedral angle
{ D 3  2  1  0   C } # D for Dihedral angle
{ D 2  1  0  4   C } # D for Dihedral angle
{ D 1  0  4  3   C } # D for Dihedral angle
{ D 16  20  19  18   C } # D for Dihedral angle
{ D 20  19  18  17   C } # D for Dihedral angle
{ D 19  18  17  16   C } # D for Dihedral angle
{ D 18  17  16  20   C } # D for Dihedral angle
{ D 17  16  20  19   C } # D for Dihedral angle
{ D 15  12  16  20   C } # D for Dihedral angle
end
end


#%pal 
#nprocs 8
#end

* xyz 0 1
C  -21.048   26.222   46.251
C  -20.361   27.558   45.944
C  -20.329   28.222   47.341
C  -20.110   27.022   48.296
O  -20.473   25.807   47.535
H  -20.833   25.428   45.533
H  -19.344   27.382   45.576
H  -20.898   28.157   45.201
H  -19.543   28.978   47.434
H  -21.289   28.710   47.548
H  -20.733   27.082   49.195
H  -19.064   26.913   48.597
C  -23.221   25.764   47.645
H  -23.739   24.837   47.369
H  -22.444   25.517   48.380
O  -22.586   26.394   46.375
C  -24.243   26.708   48.337
C  -23.611   28.064   48.672
C  -23.650   28.776   47.298
C  -24.968   28.257   46.671
O  -25.339   27.037   47.420
H  -24.685   26.192   49.191
H  -24.230   28.597   49.401
O  -22.173   27.943   49.245
H  -23.630   29.867   47.384
H  -22.788   28.472   46.692
H  -24.859   28.009   45.610
H  -25.792   28.968   46.785
H  -21.535   27.411   48.531
*
