# Test redundant internal optimization
#
! RKS B3LYP  Opt TightSCF SmallPrint

%basis
        Basis "6-31G"
end

%geom
Constraints
{ D 4  0  15  12  45.0   C } # D for Dihedral angle
{ D 0  15  12  16  225.0   C } # D for Dihedral angle
{ D 0  4  3  2   C } # D for Dihedral angle
{ D 4  3  2  1   C } # D for Dihedral angle
{ D 3  2  1  0   C } # D for Dihedral angle
{ D 2  1  0  4   C } # D for Dihedral angle
{ D 1  0  4  3   C } # D for Dihedral angle
{ D 16  20  19  18   C } # D for Dihedral angle
{ D 20  19  18  17   C } # D for Dihedral angle
{ D 19  18  17  16   C } # D for Dihedral angle
{ D 18  17  16  20   C } # D for Dihedral angle
{ D 17  16  20  19   C } # D for Dihedral angle
{ D 15  12  16  20   C } # D for Dihedral angle
end
end


#%pal 
#nprocs 8
#end

* xyz 0 1
C  -21.048   26.222   46.251
C  -20.361   27.558   45.944
C  -20.329   28.222   47.341
C  -20.110   27.022   48.296
O  -20.473   25.807   47.535
H  -20.833   25.428   45.533
H  -19.344   27.382   45.576
H  -20.898   28.157   45.201
H  -19.543   28.978   47.434
H  -21.289   28.710   47.548
H  -20.733   27.082   49.195
H  -19.064   26.913   48.597
C  -23.065   27.161   47.638
H  -22.239   27.227   48.357
H  -23.371   28.182   47.374
O  -22.586   26.394   46.375
C  -24.269   26.473   48.338
C  -25.435   26.266   47.364
C  -24.973   25.011   46.585
C  -24.227   24.183   47.662
O  -23.908   25.117   48.764
H  -24.527   27.033   49.239
H  -26.356   26.058   47.920
O  -25.685   27.489   46.441
H  -25.806   24.458   46.138
H  -24.290   25.299   45.778
H  -23.298   23.743   47.283
H  -24.849   23.389   48.083
H  -24.775   27.715   45.875
*
