# Test redundant internal optimization
#
! RKS B3LYP  Opt TightSCF SmallPrint

%basis
        Basis "6-31G"
end

%geom
Constraints
{ D 4  0  15  12  255.0   C } # D for Dihedral angle
{ D 0  15  12  16  345.0   C } # D for Dihedral angle
{ D 0  4  3  2   C } # D for Dihedral angle
{ D 4  3  2  1   C } # D for Dihedral angle
{ D 3  2  1  0   C } # D for Dihedral angle
{ D 2  1  0  4   C } # D for Dihedral angle
{ D 1  0  4  3   C } # D for Dihedral angle
{ D 16  20  19  18   C } # D for Dihedral angle
{ D 20  19  18  17   C } # D for Dihedral angle
{ D 19  18  17  16   C } # D for Dihedral angle
{ D 18  17  16  20   C } # D for Dihedral angle
{ D 17  16  20  19   C } # D for Dihedral angle
{ D 15  12  16  20   C } # D for Dihedral angle
end
end


#%pal 
#nprocs 8
#end

* xyz 0 1
C  -21.048   26.222   46.251
C  -20.361   27.558   45.944
C  -20.329   28.222   47.341
C  -20.110   27.022   48.296
O  -20.473   25.807   47.535
H  -20.833   25.428   45.533
H  -19.344   27.382   45.576
H  -20.898   28.157   45.201
H  -19.543   28.978   47.434
H  -21.289   28.710   47.548
H  -20.733   27.082   49.195
H  -19.064   26.913   48.597
C  -23.431   25.260   45.734
H  -23.846   24.625   46.526
H  -24.266   25.681   45.159
O  -22.586   26.394   46.375
C  -22.602   24.362   44.774
C  -23.490   23.329   44.072
C  -24.144   24.181   42.959
C  -23.017   25.169   42.565
O  -22.044   25.162   43.678
H  -21.759   23.936   45.321
H  -22.873   22.534   43.638
O  -24.532   22.676   45.020
H  -24.487   23.581   42.110
H  -25.009   24.723   43.358
H  -23.387   26.190   42.418
H  -22.480   24.853   41.665
H  -25.164   23.452   45.466
*
