# Test redundant internal optimization
#
! RKS B3LYP  Opt TightSCF SmallPrint

%basis
        Basis "6-31G"
end

%geom
Constraints
{ D 4  0  15  12  330.0   C } # D for Dihedral angle
{ D 0  15  12  16  270.0   C } # D for Dihedral angle
{ D 0  4  3  2   C } # D for Dihedral angle
{ D 4  3  2  1   C } # D for Dihedral angle
{ D 3  2  1  0   C } # D for Dihedral angle
{ D 2  1  0  4   C } # D for Dihedral angle
{ D 1  0  4  3   C } # D for Dihedral angle
{ D 16  20  19  18   C } # D for Dihedral angle
{ D 20  19  18  17   C } # D for Dihedral angle
{ D 19  18  17  16   C } # D for Dihedral angle
{ D 18  17  16  20   C } # D for Dihedral angle
{ D 17  16  20  19   C } # D for Dihedral angle
{ D 15  12  16  20   C } # D for Dihedral angle
end
end


#%pal 
#nprocs 8
#end

* xyz 0 1
C  -21.048   26.222   46.251
C  -20.361   27.558   45.944
C  -20.329   28.222   47.341
C  -20.110   27.022   48.296
O  -20.473   25.807   47.535
H  -20.833   25.428   45.533
H  -19.344   27.382   45.576
H  -20.898   28.157   45.201
H  -19.543   28.978   47.434
H  -21.289   28.710   47.548
H  -20.733   27.082   49.195
H  -19.064   26.913   48.597
C  -23.271   25.476   47.424
H  -22.568   25.273   48.241
H  -24.155   25.969   47.847
O  -22.586   26.394   46.375
C  -23.729   24.117   46.825
C  -24.501   23.286   47.856
C  -25.897   23.952   47.812
C  -26.052   24.347   46.323
O  -24.693   24.334   45.741
H  -22.866   23.609   46.390
H  -24.560   22.242   47.530
O  -23.861   23.322   49.271
H  -26.696   23.285   48.152
H  -25.910   24.843   48.452
H  -26.486   25.346   46.197
H  -26.651   23.626   45.759
H  -23.792   24.358   49.619
*
