# Test redundant internal optimization
#
! RKS B3LYP  Opt TightSCF SmallPrint

%basis
        Basis "6-31G"
end

%geom
Constraints
{ D 4  0  15  12  210.0   C } # D for Dihedral angle
{ D 0  15  12  16  75.0   C } # D for Dihedral angle
{ D 0  4  3  2   C } # D for Dihedral angle
{ D 4  3  2  1   C } # D for Dihedral angle
{ D 3  2  1  0   C } # D for Dihedral angle
{ D 2  1  0  4   C } # D for Dihedral angle
{ D 1  0  4  3   C } # D for Dihedral angle
{ D 16  20  19  18   C } # D for Dihedral angle
{ D 20  19  18  17   C } # D for Dihedral angle
{ D 19  18  17  16   C } # D for Dihedral angle
{ D 18  17  16  20   C } # D for Dihedral angle
{ D 17  16  20  19   C } # D for Dihedral angle
{ D 15  12  16  20   C } # D for Dihedral angle
end
end


#%pal 
#nprocs 8
#end

* xyz 0 1
C  -21.048   26.222   46.251
C  -20.361   27.558   45.944
C  -20.329   28.222   47.341
C  -20.110   27.022   48.296
O  -20.473   25.807   47.535
H  -20.833   25.428   45.533
H  -19.344   27.382   45.576
H  -20.898   28.157   45.201
H  -19.543   28.978   47.434
H  -21.289   28.710   47.548
H  -20.733   27.082   49.195
H  -19.064   26.913   48.597
C  -23.389   26.110   45.076
H  -24.402   26.518   45.181
H  -22.911   26.596   44.215
O  -22.586   26.394   46.375
C  -23.503   24.593   44.760
C  -24.199   24.356   43.415
C  -23.053   24.636   42.414
C  -21.801   24.106   43.157
O  -22.171   24.005   44.585
H  -23.970   24.085   45.606
H  -24.531   23.314   43.341
O  -25.430   25.278   43.194
H  -23.204   24.144   41.448
H  -22.967   25.714   42.233
H  -20.939   24.775   43.057
H  -21.512   23.104   42.827
H  -25.122   26.327   43.262
*
