# Test redundant internal optimization
#
! RKS B3LYP  Opt TightSCF SmallPrint

%basis
        Basis "6-31G"
end

%geom
Constraints
{ D 4  0  15  12  225.0   C } # D for Dihedral angle
{ D 0  15  12  16  105.0   C } # D for Dihedral angle
{ D 0  4  3  2   C } # D for Dihedral angle
{ D 4  3  2  1   C } # D for Dihedral angle
{ D 3  2  1  0   C } # D for Dihedral angle
{ D 2  1  0  4   C } # D for Dihedral angle
{ D 1  0  4  3   C } # D for Dihedral angle
{ D 16  20  19  18   C } # D for Dihedral angle
{ D 20  19  18  17   C } # D for Dihedral angle
{ D 19  18  17  16   C } # D for Dihedral angle
{ D 18  17  16  20   C } # D for Dihedral angle
{ D 17  16  20  19   C } # D for Dihedral angle
{ D 15  12  16  20   C } # D for Dihedral angle
end
end


#%pal 
#nprocs 8
#end

* xyz 0 1
C  -21.048   26.222   46.251
C  -20.361   27.558   45.944
C  -20.329   28.222   47.341
C  -20.110   27.022   48.296
O  -20.473   25.807   47.535
H  -20.833   25.428   45.533
H  -19.344   27.382   45.576
H  -20.898   28.157   45.201
H  -19.543   28.978   47.434
H  -21.289   28.710   47.548
H  -20.733   27.082   49.195
H  -19.064   26.913   48.597
C  -23.415   25.773   45.218
H  -24.180   26.490   44.895
H  -22.769   25.550   44.359
O  -22.586   26.394   46.375
C  -24.126   24.454   45.629
C  -24.839   23.810   44.435
C  -23.661   23.126   43.699
C  -22.741   22.668   44.858
O  -23.142   23.450   46.047
H  -24.771   24.648   46.489
H  -25.561   23.064   44.784
O  -25.589   24.838   43.545
H  -23.983   22.292   43.067
H  -23.145   23.852   43.059
H  -21.681   22.852   44.649
H  -22.875   21.612   45.105
H  -24.886   25.595   43.182
*
