# Test redundant internal optimization
#
! RKS B3LYP  Opt TightSCF SmallPrint

%basis
        Basis "6-31G"
end

%geom
Constraints
{ D 4  0  15  12  270.0   C } # D for Dihedral angle
{ D 0  15  12  16  30.0   C } # D for Dihedral angle
{ D 0  4  3  2   C } # D for Dihedral angle
{ D 4  3  2  1   C } # D for Dihedral angle
{ D 3  2  1  0   C } # D for Dihedral angle
{ D 2  1  0  4   C } # D for Dihedral angle
{ D 1  0  4  3   C } # D for Dihedral angle
{ D 16  20  19  18   C } # D for Dihedral angle
{ D 20  19  18  17   C } # D for Dihedral angle
{ D 19  18  17  16   C } # D for Dihedral angle
{ D 18  17  16  20   C } # D for Dihedral angle
{ D 17  16  20  19   C } # D for Dihedral angle
{ D 15  12  16  20   C } # D for Dihedral angle
end
end


#%pal 
#nprocs 8
#end

* xyz 0 1
C  -21.048   26.222   46.251
C  -20.361   27.558   45.944
C  -20.329   28.222   47.341
C  -20.110   27.022   48.296
O  -20.473   25.807   47.535
H  -20.833   25.428   45.533
H  -19.344   27.382   45.576
H  -20.898   28.157   45.201
H  -19.543   28.978   47.434
H  -21.289   28.710   47.548
H  -20.733   27.082   49.195
H  -19.064   26.913   48.597
C  -23.420   25.119   46.072
H  -24.348   25.147   46.656
H  -23.684   25.077   45.008
O  -22.586   26.394   46.375
C  -22.662   23.808   46.423
C  -22.400   23.704   47.930
C  -23.776   23.230   48.455
C  -24.287   22.306   47.321
O  -23.493   22.639   46.119
H  -21.767   23.736   45.802
H  -21.631   22.948   48.126
O  -21.941   25.045   48.564
H  -23.708   22.712   49.416
H  -24.445   24.090   48.585
H  -25.349   22.458   47.102
H  -24.118   21.248   47.537
H  -22.697   25.816   48.380
*
