# Test redundant internal optimization
#
! RKS B3LYP  Opt TightSCF SmallPrint

%basis
        Basis "6-31G"
end

%geom
Constraints
{ D 4  0  15  12  30.0   C } # D for Dihedral angle
{ D 0  15  12  16  165.0   C } # D for Dihedral angle
{ D 0  4  3  2   C } # D for Dihedral angle
{ D 4  3  2  1   C } # D for Dihedral angle
{ D 3  2  1  0   C } # D for Dihedral angle
{ D 2  1  0  4   C } # D for Dihedral angle
{ D 1  0  4  3   C } # D for Dihedral angle
{ D 16  20  19  18   C } # D for Dihedral angle
{ D 20  19  18  17   C } # D for Dihedral angle
{ D 19  18  17  16   C } # D for Dihedral angle
{ D 18  17  16  20   C } # D for Dihedral angle
{ D 17  16  20  19   C } # D for Dihedral angle
{ D 15  12  16  20   C } # D for Dihedral angle
end
end


#%pal 
#nprocs 8
#end

* xyz 0 1
C  -21.048   26.222   46.251
C  -20.361   27.558   45.944
C  -20.329   28.222   47.341
C  -20.110   27.022   48.296
O  -20.473   25.807   47.535
H  -20.833   25.428   45.533
H  -19.344   27.382   45.576
H  -20.898   28.157   45.201
H  -19.543   28.978   47.434
H  -21.289   28.710   47.548
H  -20.733   27.082   49.195
H  -19.064   26.913   48.597
C  -23.091   26.824   47.779
H  -23.035   25.967   48.462
H  -22.463   27.628   48.184
O  -22.586   26.394   46.375
C  -24.558   27.336   47.759
C  -25.532   26.220   47.366
C  -25.662   25.435   48.693
C  -25.578   26.547   49.768
O  -24.983   27.727   49.107
H  -24.617   28.229   47.134
H  -26.498   26.648   47.074
O  -25.013   25.342   46.194
H  -26.591   24.861   48.757
H  -24.826   24.732   48.797
H  -24.954   26.260   50.621
H  -26.563   26.845   50.137
H  -24.047   24.902   46.464
*
