# Test redundant internal optimization
#
! RKS B3LYP  Opt TightSCF SmallPrint

%basis
        Basis "6-31G"
end

%geom
Constraints
{ D 4  0  15  12  330.0   C } # D for Dihedral angle
{ D 0  15  12  16  195.0   C } # D for Dihedral angle
{ D 0  4  3  2   C } # D for Dihedral angle
{ D 4  3  2  1   C } # D for Dihedral angle
{ D 3  2  1  0   C } # D for Dihedral angle
{ D 2  1  0  4   C } # D for Dihedral angle
{ D 1  0  4  3   C } # D for Dihedral angle
{ D 16  20  19  18   C } # D for Dihedral angle
{ D 20  19  18  17   C } # D for Dihedral angle
{ D 19  18  17  16   C } # D for Dihedral angle
{ D 18  17  16  20   C } # D for Dihedral angle
{ D 17  16  20  19   C } # D for Dihedral angle
{ D 15  12  16  20   C } # D for Dihedral angle
end
end


#%pal 
#nprocs 8
#end

* xyz 0 1
C  -21.048   26.222   46.251
C  -20.361   27.558   45.944
C  -20.329   28.222   47.341
C  -20.110   27.022   48.296
O  -20.473   25.807   47.535
H  -20.833   25.428   45.533
H  -19.344   27.382   45.576
H  -20.898   28.157   45.201
H  -19.543   28.978   47.434
H  -21.289   28.710   47.548
H  -20.733   27.082   49.195
H  -19.064   26.913   48.597
C  -23.271   25.476   47.424
H  -22.873   24.458   47.329
H  -23.062   25.832   48.441
O  -22.586   26.394   46.375
C  -24.814   25.415   47.253
C  -25.200   24.767   45.918
C  -25.022   23.263   46.236
C  -25.458   23.163   47.719
O  -25.408   24.536   48.266
H  -25.231   26.411   47.409
H  -26.247   24.990   45.681
O  -24.318   25.242   44.731
H  -25.616   22.618   45.581
H  -23.969   22.978   46.122
H  -24.798   22.518   48.308
H  -26.487   22.810   47.828
H  -23.265   25.028   44.947
*
