# Test redundant internal optimization
#
! RKS B3LYP  Opt TightSCF SmallPrint

%basis
        Basis "6-31G"
end

%geom
Constraints
{ D 4  0  15  12  180.0   C } # D for Dihedral angle
{ D 0  15  12  16  225.0   C } # D for Dihedral angle
{ D 0  4  3  2   C } # D for Dihedral angle
{ D 4  3  2  1   C } # D for Dihedral angle
{ D 3  2  1  0   C } # D for Dihedral angle
{ D 2  1  0  4   C } # D for Dihedral angle
{ D 1  0  4  3   C } # D for Dihedral angle
{ D 16  20  19  18   C } # D for Dihedral angle
{ D 20  19  18  17   C } # D for Dihedral angle
{ D 19  18  17  16   C } # D for Dihedral angle
{ D 18  17  16  20   C } # D for Dihedral angle
{ D 17  16  20  19   C } # D for Dihedral angle
{ D 15  12  16  20   C } # D for Dihedral angle
end
end


#%pal 
#nprocs 8
#end

* xyz 0 1
C  -21.048   26.222   46.251
C  -20.361   27.558   45.944
C  -20.329   28.222   47.341
C  -20.110   27.022   48.296
O  -20.473   25.807   47.535
H  -20.833   25.428   45.533
H  -19.344   27.382   45.576
H  -20.898   28.157   45.201
H  -19.543   28.978   47.434
H  -21.289   28.710   47.548
H  -20.733   27.082   49.195
H  -19.064   26.913   48.597
C  -23.122   26.788   45.151
H  -22.369   27.146   44.439
H  -23.649   25.940   44.694
O  -22.472   26.381   46.366
C  -24.142   27.922   45.447
C  -25.150   27.496   46.521
C  -24.327   27.689   47.817
C  -23.456   28.931   47.499
O  -23.464   29.084   46.029
H  -24.594   28.250   44.509
O  -26.378   28.447   46.506
H  -25.508   26.468   46.394
H  -24.954   27.835   48.702
H  -23.695   26.811   47.996
H  -22.422   28.818   47.844
H  -23.872   29.851   47.921
H  -26.044   29.483   46.633
*
