# Test redundant internal optimization
#
! RKS B3LYP  Opt TightSCF SmallPrint

%basis
        Basis "6-31G"
end

%geom
Constraints
{ D 4  0  15  12  300.0   C } # D for Dihedral angle
{ D 0  15  12  16  285.0   C } # D for Dihedral angle
{ D 0  4  3  2   C } # D for Dihedral angle
{ D 4  3  2  1   C } # D for Dihedral angle
{ D 3  2  1  0   C } # D for Dihedral angle
{ D 2  1  0  4   C } # D for Dihedral angle
{ D 1  0  4  3   C } # D for Dihedral angle
{ D 16  20  19  18   C } # D for Dihedral angle
{ D 20  19  18  17   C } # D for Dihedral angle
{ D 19  18  17  16   C } # D for Dihedral angle
{ D 18  17  16  20   C } # D for Dihedral angle
{ D 17  16  20  19   C } # D for Dihedral angle
{ D 15  12  16  20   C } # D for Dihedral angle
end
end


#%pal 
#nprocs 8
#end

* xyz 0 1
C  -21.048   26.222   46.251
C  -20.361   27.558   45.944
C  -20.329   28.222   47.341
C  -20.110   27.022   48.296
O  -20.473   25.807   47.535
H  -20.833   25.428   45.533
H  -19.344   27.382   45.576
H  -20.898   28.157   45.201
H  -19.543   28.978   47.434
H  -21.289   28.710   47.548
H  -20.733   27.082   49.195
H  -19.064   26.913   48.597
C  -23.171   25.188   46.758
H  -22.640   24.714   47.592
H  -24.188   25.431   47.094
O  -22.472   26.381   46.366
C  -23.252   24.201   45.561
C  -23.892   24.864   44.336
C  -22.711   25.690   43.773
C  -21.482   24.795   44.073
O  -21.907   23.831   45.109
H  -23.745   23.283   45.887
O  -24.337   23.781   43.316
H  -24.762   25.482   44.585
H  -22.816   25.911   42.706
H  -22.632   26.645   44.307
H  -20.626   25.369   44.445
H  -21.167   24.214   43.201
H  -23.481   23.150   43.050
*
