# Test redundant internal optimization
#
! RKS B3LYP  Opt TightSCF SmallPrint

%basis
        Basis "6-31G"
end

%geom
Constraints
{ D 4  0  15  12  60.0   C } # D for Dihedral angle
{ D 0  15  12  16  135.0   C } # D for Dihedral angle
{ D 0  4  3  2   C } # D for Dihedral angle
{ D 4  3  2  1   C } # D for Dihedral angle
{ D 3  2  1  0   C } # D for Dihedral angle
{ D 2  1  0  4   C } # D for Dihedral angle
{ D 1  0  4  3   C } # D for Dihedral angle
{ D 16  20  19  18   C } # D for Dihedral angle
{ D 20  19  18  17   C } # D for Dihedral angle
{ D 19  18  17  16   C } # D for Dihedral angle
{ D 18  17  16  20   C } # D for Dihedral angle
{ D 17  16  20  19   C } # D for Dihedral angle
{ D 15  12  16  20   C } # D for Dihedral angle
end
end


#%pal 
#nprocs 8
#end

* xyz 0 1
C  -21.048   26.222   46.251
C  -20.361   27.558   45.944
C  -20.329   28.222   47.341
C  -20.110   27.022   48.296
O  -20.473   25.807   47.535
H  -20.833   25.428   45.533
H  -19.344   27.382   45.576
H  -20.898   28.157   45.201
H  -19.543   28.978   47.434
H  -21.289   28.710   47.548
H  -20.733   27.082   49.195
H  -19.064   26.913   48.597
C  -22.882   27.363   47.331
H  -23.256   26.856   48.229
H  -22.031   27.993   47.624
O  -22.472   26.381   46.366
C  -24.000   28.261   46.735
C  -23.553   28.905   45.417
C  -23.744   27.739   44.418
C  -24.999   27.011   44.963
O  -25.166   27.452   46.364
H  -24.332   28.972   47.494
O  -24.489   30.091   45.059
H  -22.522   29.275   45.446
H  -23.875   28.080   43.386
H  -22.872   27.075   44.444
H  -24.896   25.921   44.938
H  -25.910   27.293   44.426
H  -25.528   29.744   45.023
*
