# Test redundant internal optimization
#
! RKS B3LYP  Opt TightSCF SmallPrint

%basis
        Basis "6-31G"
end

%geom
Constraints
{ D 4  0  15  12  210.0   C } # D for Dihedral angle
{ D 0  15  12  16  105.0   C } # D for Dihedral angle
{ D 0  4  3  2   C } # D for Dihedral angle
{ D 4  3  2  1   C } # D for Dihedral angle
{ D 3  2  1  0   C } # D for Dihedral angle
{ D 2  1  0  4   C } # D for Dihedral angle
{ D 1  0  4  3   C } # D for Dihedral angle
{ D 16  20  19  18   C } # D for Dihedral angle
{ D 20  19  18  17   C } # D for Dihedral angle
{ D 19  18  17  16   C } # D for Dihedral angle
{ D 18  17  16  20   C } # D for Dihedral angle
{ D 17  16  20  19   C } # D for Dihedral angle
{ D 15  12  16  20   C } # D for Dihedral angle
end
end


#%pal 
#nprocs 8
#end

* xyz 0 1
C  -21.048   26.222   46.251
C  -20.361   27.558   45.944
C  -20.329   28.222   47.341
C  -20.110   27.022   48.296
O  -20.473   25.807   47.535
H  -20.833   25.428   45.533
H  -19.344   27.382   45.576
H  -20.898   28.157   45.201
H  -19.543   28.978   47.434
H  -21.289   28.710   47.548
H  -20.733   27.082   49.195
H  -19.064   26.913   48.597
C  -23.197   26.114   45.154
H  -23.940   26.905   44.995
H  -22.516   26.105   44.293
O  -22.472   26.381   46.366
C  -23.912   24.738   45.254
C  -22.918   23.619   45.585
C  -22.733   23.805   47.110
C  -24.137   24.259   47.582
O  -24.854   24.729   46.377
H  -24.494   24.571   44.346
O  -23.552   22.235   45.276
H  -21.977   23.699   45.030
H  -22.399   22.892   47.613
H  -21.989   24.587   47.306
H  -24.091   25.073   48.314
H  -24.722   23.436   48.004
H  -24.496   22.132   45.823
*
