# Test redundant internal optimization
#
! RKS B3LYP  Opt TightSCF SmallPrint

%basis
        Basis "6-31G"
end

%geom
Constraints
{ D 4  0  15  12  300.0   C } # D for Dihedral angle
{ D 0  15  12  16  255.0   C } # D for Dihedral angle
{ D 0  4  3  2   C } # D for Dihedral angle
{ D 4  3  2  1   C } # D for Dihedral angle
{ D 3  2  1  0   C } # D for Dihedral angle
{ D 2  1  0  4   C } # D for Dihedral angle
{ D 1  0  4  3   C } # D for Dihedral angle
{ D 16  20  19  18   C } # D for Dihedral angle
{ D 20  19  18  17   C } # D for Dihedral angle
{ D 19  18  17  16   C } # D for Dihedral angle
{ D 18  17  16  20   C } # D for Dihedral angle
{ D 17  16  20  19   C } # D for Dihedral angle
{ D 15  12  16  20   C } # D for Dihedral angle
end
end


#%pal 
#nprocs 8
#end

* xyz 0 1
C  -21.048   26.222   46.251
C  -20.361   27.558   45.944
C  -20.329   28.222   47.341
C  -20.110   27.022   48.296
O  -20.473   25.807   47.535
H  -20.833   25.428   45.533
H  -19.344   27.382   45.576
H  -20.898   28.157   45.201
H  -19.543   28.978   47.434
H  -21.289   28.710   47.548
H  -20.733   27.082   49.195
H  -19.064   26.913   48.597
C  -23.171   25.188   46.758
H  -22.453   24.462   47.157
H  -23.904   25.413   47.544
O  -22.472   26.381   46.366
C  -23.907   24.576   45.534
C  -24.842   25.600   44.879
C  -23.848   26.448   44.051
C  -22.796   25.407   43.591
O  -22.949   24.234   44.477
H  -24.395   23.648   45.837
O  -25.853   24.877   43.948
H  -25.406   26.195   45.605
H  -24.324   26.960   43.209
H  -23.383   27.211   44.687
H  -21.770   25.785   43.668
H  -22.970   25.063   42.567
H  -25.310   24.275   43.211
*
