# Test redundant internal optimization
#
! RKS B3LYP  Opt TightSCF SmallPrint

%basis
        Basis "6-31G"
end

%geom
Constraints
{ D 4  0  15  12  255.0   C } # D for Dihedral angle
{ D 0  15  12  16  195.0   C } # D for Dihedral angle
{ D 0  4  3  2   C } # D for Dihedral angle
{ D 4  3  2  1   C } # D for Dihedral angle
{ D 3  2  1  0   C } # D for Dihedral angle
{ D 2  1  0  4   C } # D for Dihedral angle
{ D 1  0  4  3   C } # D for Dihedral angle
{ D 16  20  19  18   C } # D for Dihedral angle
{ D 20  19  18  17   C } # D for Dihedral angle
{ D 19  18  17  16   C } # D for Dihedral angle
{ D 18  17  16  20   C } # D for Dihedral angle
{ D 17  16  20  19   C } # D for Dihedral angle
{ D 15  12  16  20   C } # D for Dihedral angle
end
end


#%pal 
#nprocs 8
#end

* xyz 0 1
C  -21.048   26.222   46.251
C  -20.361   27.558   45.944
C  -20.329   28.222   47.341
C  -20.110   27.022   48.296
O  -20.473   25.807   47.535
H  -20.833   25.428   45.533
H  -19.344   27.382   45.576
H  -20.898   28.157   45.201
H  -19.543   28.978   47.434
H  -21.289   28.710   47.548
H  -20.733   27.082   49.195
H  -19.064   26.913   48.597
C  -23.236   25.322   45.767
H  -22.814   25.082   44.783
H  -23.192   24.417   46.388
O  -22.472   26.381   46.366
C  -24.718   25.759   45.607
C  -25.313   26.207   46.948
C  -24.744   27.640   47.079
C  -24.724   28.147   45.615
O  -24.814   26.949   44.754
H  -25.275   24.963   45.110
O  -26.863   26.240   46.858
H  -25.029   25.559   47.784
H  -25.346   28.279   47.733
H  -23.728   27.605   47.489
H  -23.807   28.696   45.374
H  -25.587   28.778   45.380
H  -27.171   26.885   46.027
*
