# Test redundant internal optimization
#
! RKS B3LYP  Opt TightSCF SmallPrint

%basis
        Basis "6-31G"
end

%geom
Constraints
{ D 4  0  15  12  285.0   C } # D for Dihedral angle
{ D 0  15  12  16  105.0   C } # D for Dihedral angle
{ D 0  4  3  2   C } # D for Dihedral angle
{ D 4  3  2  1   C } # D for Dihedral angle
{ D 3  2  1  0   C } # D for Dihedral angle
{ D 2  1  0  4   C } # D for Dihedral angle
{ D 1  0  4  3   C } # D for Dihedral angle
{ D 16  20  19  18   C } # D for Dihedral angle
{ D 20  19  18  17   C } # D for Dihedral angle
{ D 19  18  17  16   C } # D for Dihedral angle
{ D 18  17  16  20   C } # D for Dihedral angle
{ D 17  16  20  19   C } # D for Dihedral angle
{ D 15  12  16  20   C } # D for Dihedral angle
end
end


#%pal 
#nprocs 8
#end

* xyz 0 1
C  -21.048   26.222   46.251
C  -20.361   27.558   45.944
C  -20.329   28.222   47.341
C  -20.110   27.022   48.296
O  -20.473   25.807   47.535
H  -20.833   25.428   45.533
H  -19.344   27.382   45.576
H  -20.898   28.157   45.201
H  -19.543   28.978   47.434
H  -21.289   28.710   47.548
H  -20.733   27.082   49.195
H  -19.064   26.913   48.597
C  -23.203   25.145   46.420
H  -24.069   25.206   45.750
H  -22.572   24.310   46.089
O  -22.472   26.381   46.366
C  -23.685   24.875   47.872
C  -22.511   24.890   48.859
C  -22.285   26.409   49.053
C  -23.719   26.990   48.979
O  -24.559   25.959   48.334
H  -24.276   23.957   47.889
O  -22.933   24.224   50.198
H  -21.623   24.374   48.481
H  -21.787   26.647   49.998
H  -21.666   26.804   48.239
H  -23.768   27.914   48.390
H  -24.145   27.179   49.969
H  -23.821   24.727   50.596
*
