# Test redundant internal optimization
#
! RKS B3LYP  Opt TightSCF SmallPrint

%basis
        Basis "6-31G"
end

%geom
Constraints
{ D 4  0  15  12  120.0   C } # D for Dihedral angle
{ D 0  15  12  16  60.0   C } # D for Dihedral angle
{ D 0  4  3  2   C } # D for Dihedral angle
{ D 4  3  2  1   C } # D for Dihedral angle
{ D 3  2  1  0   C } # D for Dihedral angle
{ D 2  1  0  4   C } # D for Dihedral angle
{ D 1  0  4  3   C } # D for Dihedral angle
{ D 16  20  19  18   C } # D for Dihedral angle
{ D 20  19  18  17   C } # D for Dihedral angle
{ D 19  18  17  16   C } # D for Dihedral angle
{ D 18  17  16  20   C } # D for Dihedral angle
{ D 17  16  20  19   C } # D for Dihedral angle
{ D 15  12  16  20   C } # D for Dihedral angle
end
end


#%pal 
#nprocs 8
#end

* xyz 0 1
C  -21.048   26.222   46.251
C  -20.361   27.558   45.944
C  -20.329   28.222   47.341
C  -20.110   27.022   48.296
O  -20.473   25.807   47.535
H  -20.833   25.428   45.533
H  -19.344   27.382   45.576
H  -20.898   28.157   45.201
H  -19.543   28.978   47.434
H  -21.289   28.710   47.548
H  -20.733   27.082   49.195
H  -19.064   26.913   48.597
C  -22.946   27.705   46.069
H  -24.035   27.735   46.190
H  -22.504   28.435   46.760
O  -22.472   26.381   46.366
C  -22.570   28.090   44.611
C  -23.285   27.190   43.596
C  -24.698   27.819   43.561
C  -24.416   29.331   43.743
O  -23.050   29.440   44.298
H  -21.482   28.106   44.514
O  -22.599   27.305   42.207
H  -23.295   26.135   43.889
H  -25.236   27.602   42.633
H  -25.301   27.436   44.394
H  -25.122   29.810   44.428
H  -24.421   29.873   42.793
H  -22.576   28.355   41.894
*
