# Test redundant internal optimization
#
! RKS B3LYP  Opt TightSCF SmallPrint

%basis
        Basis "6-31G"
end

%geom
Constraints
{ D 4  0  15  12  180.0   C } # D for Dihedral angle
{ D 0  15  12  16  135.0   C } # D for Dihedral angle
{ D 0  4  3  2   C } # D for Dihedral angle
{ D 4  3  2  1   C } # D for Dihedral angle
{ D 3  2  1  0   C } # D for Dihedral angle
{ D 2  1  0  4   C } # D for Dihedral angle
{ D 1  0  4  3   C } # D for Dihedral angle
{ D 16  20  19  18   C } # D for Dihedral angle
{ D 20  19  18  17   C } # D for Dihedral angle
{ D 19  18  17  16   C } # D for Dihedral angle
{ D 18  17  16  20   C } # D for Dihedral angle
{ D 17  16  20  19   C } # D for Dihedral angle
{ D 15  12  16  20   C } # D for Dihedral angle
end
end


#%pal 
#nprocs 8
#end

* xyz 0 1
C  -21.048   26.222   46.251
C  -20.361   27.558   45.944
C  -20.329   28.222   47.341
C  -20.110   27.022   48.296
O  -20.473   25.807   47.535
H  -20.833   25.428   45.533
H  -19.344   27.382   45.576
H  -20.898   28.157   45.201
H  -19.543   28.978   47.434
H  -21.289   28.710   47.548
H  -20.733   27.082   49.195
H  -19.064   26.913   48.597
C  -23.122   26.788   45.151
H  -23.388   27.849   45.220
H  -22.449   26.658   44.293
O  -22.472   26.381   46.366
C  -24.406   25.942   44.925
C  -25.445   26.202   46.021
C  -26.061   27.542   45.556
C  -26.040   27.423   44.012
O  -25.077   26.349   43.686
H  -24.126   24.892   44.807
O  -26.515   25.076   46.019
H  -25.007   26.260   47.024
H  -27.070   27.705   45.949
H  -25.435   28.380   45.887
H  -25.724   28.350   43.523
H  -27.009   27.120   43.604
H  -26.967   25.000   45.023
*
