# Test redundant internal optimization
#
! RKS B3LYP  Opt TightSCF SmallPrint

%basis
        Basis "6-31G"
end

%geom
Constraints
{ D 4  0  15  12  300.0   C } # D for Dihedral angle
{ D 0  15  12  16  240.0   C } # D for Dihedral angle
{ D 0  4  3  2   C } # D for Dihedral angle
{ D 4  3  2  1   C } # D for Dihedral angle
{ D 3  2  1  0   C } # D for Dihedral angle
{ D 2  1  0  4   C } # D for Dihedral angle
{ D 1  0  4  3   C } # D for Dihedral angle
{ D 16  20  19  18   C } # D for Dihedral angle
{ D 20  19  18  17   C } # D for Dihedral angle
{ D 19  18  17  16   C } # D for Dihedral angle
{ D 18  17  16  20   C } # D for Dihedral angle
{ D 17  16  20  19   C } # D for Dihedral angle
{ D 15  12  16  20   C } # D for Dihedral angle
end
end


#%pal 
#nprocs 8
#end

* xyz 0 1
C  -21.048   26.222   46.251
C  -20.361   27.558   45.944
C  -20.329   28.222   47.341
C  -20.110   27.022   48.296
O  -20.473   25.807   47.535
H  -20.833   25.428   45.533
H  -19.344   27.382   45.576
H  -20.898   28.157   45.201
H  -19.543   28.978   47.434
H  -21.289   28.710   47.548
H  -20.733   27.082   49.195
H  -19.064   26.913   48.597
C  -23.171   25.188   46.758
H  -22.449   24.376   46.902
H  -23.701   25.347   47.706
O  -22.472   26.381   46.366
C  -24.197   24.788   45.662
C  -23.494   24.408   44.354
C  -23.026   22.966   44.658
C  -24.165   22.404   45.543
O  -24.916   23.571   46.052
H  -24.941   25.582   45.562
O  -24.512   24.418   43.180
H  -22.668   25.080   44.098
H  -22.868   22.371   43.753
H  -22.080   22.987   45.213
H  -23.790   21.821   46.390
H  -24.870   21.790   44.975
H  -25.351   23.752   43.414
*
