# Test redundant internal optimization
#
! RKS B3LYP  Opt TightSCF SmallPrint

%basis
        Basis "6-31G"
end

%geom
Constraints
{ D 4  0  15  12  285.0   C } # D for Dihedral angle
{ D 0  15  12  16  120.0   C } # D for Dihedral angle
{ D 0  4  3  2   C } # D for Dihedral angle
{ D 4  3  2  1   C } # D for Dihedral angle
{ D 3  2  1  0   C } # D for Dihedral angle
{ D 2  1  0  4   C } # D for Dihedral angle
{ D 1  0  4  3   C } # D for Dihedral angle
{ D 16  20  19  18   C } # D for Dihedral angle
{ D 20  19  18  17   C } # D for Dihedral angle
{ D 19  18  17  16   C } # D for Dihedral angle
{ D 18  17  16  20   C } # D for Dihedral angle
{ D 17  16  20  19   C } # D for Dihedral angle
{ D 15  12  16  20   C } # D for Dihedral angle
end
end


#%pal 
#nprocs 8
#end

* xyz 0 1
C  -21.048   26.222   46.251
C  -20.361   27.558   45.944
C  -20.329   28.222   47.341
C  -20.110   27.022   48.296
O  -20.473   25.807   47.535
H  -20.833   25.428   45.533
H  -19.344   27.382   45.576
H  -20.898   28.157   45.201
H  -19.543   28.978   47.434
H  -21.289   28.710   47.548
H  -20.733   27.082   49.195
H  -19.064   26.913   48.597
C  -23.203   25.145   46.420
H  -23.897   25.097   45.572
H  -22.518   24.290   46.351
O  -22.472   26.381   46.366
C  -23.998   25.055   47.752
C  -25.076   26.142   47.832
C  -26.193   25.540   46.946
C  -26.085   24.021   47.226
O  -24.748   23.797   47.817
H  -23.296   25.053   48.589
O  -25.565   26.301   49.298
H  -24.730   27.118   47.476
H  -27.184   25.939   47.183
H  -25.991   25.754   45.889
H  -26.181   23.419   46.317
H  -26.822   23.678   47.958
H  -25.916   25.334   49.676
*
