# Test redundant internal optimization
#
! RKS B3LYP  Opt TightSCF SmallPrint

%basis
        Basis "6-31G"
end

%geom
Constraints
{ D 4  0  15  12  330.0   C } # D for Dihedral angle
{ D 0  15  12  16  285.0   C } # D for Dihedral angle
{ D 0  4  3  2   C } # D for Dihedral angle
{ D 4  3  2  1   C } # D for Dihedral angle
{ D 3  2  1  0   C } # D for Dihedral angle
{ D 2  1  0  4   C } # D for Dihedral angle
{ D 1  0  4  3   C } # D for Dihedral angle
{ D 16  20  19  18   C } # D for Dihedral angle
{ D 20  19  18  17   C } # D for Dihedral angle
{ D 19  18  17  16   C } # D for Dihedral angle
{ D 18  17  16  20   C } # D for Dihedral angle
{ D 17  16  20  19   C } # D for Dihedral angle
{ D 15  12  16  20   C } # D for Dihedral angle
end
end


#%pal 
#nprocs 8
#end

* xyz 0 1
C  -21.048   26.222   46.251
C  -20.361   27.558   45.944
C  -20.329   28.222   47.341
C  -20.110   27.022   48.296
O  -20.473   25.807   47.535
H  -20.833   25.428   45.533
H  -19.344   27.382   45.576
H  -20.898   28.157   45.201
H  -19.543   28.978   47.434
H  -21.289   28.710   47.548
H  -20.733   27.082   49.195
H  -19.064   26.913   48.597
C  -23.087   25.523   47.341
H  -22.493   25.539   48.263
H  -24.099   25.875   47.579
O  -22.472   26.381   46.366
C  -23.167   24.070   46.797
C  -21.769   23.475   46.589
C  -21.382   23.076   48.032
C  -22.730   22.628   48.649
O  -23.793   23.186   47.785
H  -23.801   24.056   45.907
O  -21.854   22.220   45.677
H  -21.064   24.181   46.139
H  -20.624   22.287   48.066
H  -20.982   23.946   48.569
H  -22.868   22.996   49.670
H  -22.850   21.541   48.645
H  -22.557   21.499   46.110
*
