# Test redundant internal optimization
#
! RKS B3LYP  Opt TightSCF SmallPrint

%basis
        Basis "6-31G"
end

%geom
Constraints
{ D 4  0  15  12  285.0   C } # D for Dihedral angle
{ D 0  15  12  16  45.0   C } # D for Dihedral angle
{ D 0  4  3  2   C } # D for Dihedral angle
{ D 4  3  2  1   C } # D for Dihedral angle
{ D 3  2  1  0   C } # D for Dihedral angle
{ D 2  1  0  4   C } # D for Dihedral angle
{ D 1  0  4  3   C } # D for Dihedral angle
{ D 16  20  19  18   C } # D for Dihedral angle
{ D 20  19  18  17   C } # D for Dihedral angle
{ D 19  18  17  16   C } # D for Dihedral angle
{ D 18  17  16  20   C } # D for Dihedral angle
{ D 17  16  20  19   C } # D for Dihedral angle
{ D 15  12  16  20   C } # D for Dihedral angle
end
end


#%pal 
#nprocs 8
#end

* xyz 0 1
C  -21.048   26.222   46.251
C  -20.361   27.558   45.944
C  -20.329   28.222   47.341
C  -20.110   27.022   48.296
O  -20.473   25.807   47.535
H  -20.833   25.428   45.533
H  -19.344   27.382   45.576
H  -20.898   28.157   45.201
H  -19.543   28.978   47.434
H  -21.289   28.710   47.548
H  -20.733   27.082   49.195
H  -19.064   26.913   48.597
C  -23.203   25.145   46.420
H  -24.225   25.344   46.764
H  -23.259   24.688   45.424
O  -22.472   26.381   46.366
C  -22.507   24.157   47.396
C  -22.535   24.683   48.836
C  -23.978   24.332   49.268
C  -24.250   22.993   48.539
O  -23.245   22.892   47.459
H  -21.508   23.926   47.019
O  -21.501   23.915   49.704
H  -22.318   25.754   48.907
H  -24.088   24.247   50.354
H  -24.674   25.108   48.922
H  -25.253   22.948   48.103
H  -24.108   22.127   49.192
H  -21.700   22.838   49.647
*
