# Test redundant internal optimization
#
! RKS B3LYP  Opt TightSCF SmallPrint

%basis
        Basis "6-31G"
end

%geom
Constraints
{ D 4  0  15  12  195.0   C } # D for Dihedral angle
{ D 0  15  12  16  150.0   C } # D for Dihedral angle
{ D 0  4  3  2   C } # D for Dihedral angle
{ D 4  3  2  1   C } # D for Dihedral angle
{ D 3  2  1  0   C } # D for Dihedral angle
{ D 2  1  0  4   C } # D for Dihedral angle
{ D 1  0  4  3   C } # D for Dihedral angle
{ D 16  20  19  18   C } # D for Dihedral angle
{ D 20  19  18  17   C } # D for Dihedral angle
{ D 19  18  17  16   C } # D for Dihedral angle
{ D 18  17  16  20   C } # D for Dihedral angle
{ D 17  16  20  19   C } # D for Dihedral angle
{ D 15  12  16  20   C } # D for Dihedral angle
end
end


#%pal 
#nprocs 8
#end

* xyz 0 1
C  -21.048   26.222   46.251
C  -20.361   27.558   45.944
C  -20.329   28.222   47.341
C  -20.110   27.022   48.296
O  -20.473   25.807   47.535
H  -20.833   25.428   45.533
H  -19.344   27.382   45.576
H  -20.898   28.157   45.201
H  -19.543   28.978   47.434
H  -21.289   28.710   47.548
H  -20.733   27.082   49.195
H  -19.064   26.913   48.597
C  -23.163   26.451   45.108
H  -23.216   27.497   44.781
H  -22.625   25.879   44.341
O  -22.472   26.381   46.366
C  -24.599   25.877   45.257
C  -25.445   26.733   46.207
C  -25.847   27.913   45.292
C  -26.017   27.243   43.907
O  -25.314   25.944   43.978
H  -24.536   24.822   45.534
O  -26.701   25.940   46.663
H  -24.897   27.053   47.100
H  -26.758   28.419   45.627
H  -25.042   28.658   45.264
H  -25.588   27.840   43.096
H  -27.064   27.029   43.673
H  -27.265   25.608   45.783
*
