# Test redundant internal optimization
#
! RKS B3LYP  Opt TightSCF SmallPrint

%basis
        Basis "6-31G"
end

%geom
Constraints
{ D 4  0  15  12  165.0   C } # D for Dihedral angle
{ D 0  15  12  16  225.0   C } # D for Dihedral angle
{ D 0  4  3  2   C } # D for Dihedral angle
{ D 4  3  2  1   C } # D for Dihedral angle
{ D 3  2  1  0   C } # D for Dihedral angle
{ D 2  1  0  4   C } # D for Dihedral angle
{ D 1  0  4  3   C } # D for Dihedral angle
{ D 16  20  19  18   C } # D for Dihedral angle
{ D 20  19  18  17   C } # D for Dihedral angle
{ D 19  18  17  16   C } # D for Dihedral angle
{ D 18  17  16  20   C } # D for Dihedral angle
{ D 17  16  20  19   C } # D for Dihedral angle
{ D 15  12  16  20   C } # D for Dihedral angle
end
end


#%pal 
#nprocs 8
#end

* xyz 0 1
C  -21.048   26.222   46.251
C  -20.361   27.558   45.944
C  -20.329   28.222   47.341
C  -20.110   27.022   48.296
O  -20.473   25.807   47.535
H  -20.833   25.428   45.533
H  -19.344   27.382   45.576
H  -20.898   28.157   45.201
H  -19.543   28.978   47.434
H  -21.289   28.710   47.548
H  -20.733   27.082   49.195
H  -19.064   26.913   48.597
C  -23.077   27.101   45.280
H  -22.296   27.611   44.703
H  -23.603   26.411   44.607
O  -22.472   26.381   46.366
C  -24.086   28.146   45.830
C  -23.377   29.224   46.657
C  -22.800   30.138   45.550
C  -23.883   30.079   44.444
O  -24.710   28.887   44.729
H  -24.888   27.625   46.359
O  -24.409   29.997   47.523
H  -22.605   28.819   47.320
H  -22.612   31.159   45.897
H  -21.850   29.730   45.182
H  -23.455   29.989   43.441
H  -24.550   30.946   44.467
H  -25.194   30.411   46.879
*
