# Test redundant internal optimization
#
! RKS B3LYP  Opt TightSCF SmallPrint

%basis
        Basis "6-31G"
end

%geom
Constraints
{ D 4  0  15  12  300.0   C } # D for Dihedral angle
{ D 0  15  12  16  105.0   C } # D for Dihedral angle
{ D 0  4  3  2   C } # D for Dihedral angle
{ D 4  3  2  1   C } # D for Dihedral angle
{ D 3  2  1  0   C } # D for Dihedral angle
{ D 2  1  0  4   C } # D for Dihedral angle
{ D 1  0  4  3   C } # D for Dihedral angle
{ D 16  20  19  18   C } # D for Dihedral angle
{ D 20  19  18  17   C } # D for Dihedral angle
{ D 19  18  17  16   C } # D for Dihedral angle
{ D 18  17  16  20   C } # D for Dihedral angle
{ D 17  16  20  19   C } # D for Dihedral angle
{ D 15  12  16  20   C } # D for Dihedral angle
end
end


#%pal 
#nprocs 8
#end

* xyz 0 1
C  -21.048   26.222   46.251
C  -20.361   27.558   45.944
C  -20.329   28.222   47.341
C  -20.110   27.022   48.296
O  -20.473   25.807   47.535
H  -20.833   25.428   45.533
H  -19.344   27.382   45.576
H  -20.898   28.157   45.201
H  -19.543   28.978   47.434
H  -21.289   28.710   47.548
H  -20.733   27.082   49.195
H  -19.064   26.913   48.597
C  -23.171   25.188   46.758
H  -24.055   25.061   46.122
H  -22.528   24.307   46.632
O  -22.472   26.381   46.366
C  -23.608   25.292   48.245
C  -24.254   23.988   48.727
C  -23.014   23.103   48.993
C  -21.964   24.114   49.516
O  -22.437   25.457   49.113
H  -24.230   26.179   48.375
O  -25.041   24.238   50.043
H  -24.940   23.551   47.993
H  -23.211   22.298   49.709
H  -22.673   22.642   48.058
H  -20.969   23.943   49.094
H  -21.891   24.113   50.608
H  -24.373   24.676   50.794
*
