# Test redundant internal optimization
#
! RKS B3LYP  Opt TightSCF SmallPrint

%basis
        Basis "6-31G"
end

%geom
Constraints
{ D 4  0  15  12  240.0   C } # D for Dihedral angle
{ D 0  15  12  16  345.0   C } # D for Dihedral angle
{ D 0  4  3  2   C } # D for Dihedral angle
{ D 4  3  2  1   C } # D for Dihedral angle
{ D 3  2  1  0   C } # D for Dihedral angle
{ D 2  1  0  4   C } # D for Dihedral angle
{ D 1  0  4  3   C } # D for Dihedral angle
{ D 16  20  19  18   C } # D for Dihedral angle
{ D 20  19  18  17   C } # D for Dihedral angle
{ D 19  18  17  16   C } # D for Dihedral angle
{ D 18  17  16  20   C } # D for Dihedral angle
{ D 17  16  20  19   C } # D for Dihedral angle
{ D 15  12  16  20   C } # D for Dihedral angle
end
end


#%pal 
#nprocs 8
#end

* xyz 0 1
C  -21.048   26.222   46.251
C  -20.361   27.558   45.944
C  -20.329   28.222   47.341
C  -20.110   27.022   48.296
O  -20.473   25.807   47.535
H  -20.833   25.428   45.533
H  -19.344   27.382   45.576
H  -20.898   28.157   45.201
H  -19.543   28.978   47.434
H  -21.289   28.710   47.548
H  -20.733   27.082   49.195
H  -19.064   26.913   48.597
C  -23.235   25.530   45.495
H  -23.683   24.719   46.082
H  -24.046   26.095   45.018
O  -22.472   26.381   46.366
C  -22.315   24.932   44.395
C  -23.120   24.112   43.381
C  -23.725   25.222   42.490
C  -22.609   26.294   42.456
O  -21.711   26.003   43.595
H  -21.497   24.387   44.869
O  -22.170   23.203   42.556
H  -23.883   23.479   43.849
H  -23.992   24.865   41.490
H  -24.634   25.625   42.954
H  -23.000   27.311   42.558
H  -22.003   26.237   41.546
H  -21.397   23.816   42.077
*
