# Test redundant internal optimization
#
! RKS B3LYP  Opt TightSCF SmallPrint

%basis
        Basis "6-31G"
end

%geom
Constraints
{ D 4  0  15  12  240.0   C } # D for Dihedral angle
{ D 0  15  12  16  195.0   C } # D for Dihedral angle
{ D 0  4  3  2   C } # D for Dihedral angle
{ D 4  3  2  1   C } # D for Dihedral angle
{ D 3  2  1  0   C } # D for Dihedral angle
{ D 2  1  0  4   C } # D for Dihedral angle
{ D 1  0  4  3   C } # D for Dihedral angle
{ D 16  20  19  18   C } # D for Dihedral angle
{ D 20  19  18  17   C } # D for Dihedral angle
{ D 19  18  17  16   C } # D for Dihedral angle
{ D 18  17  16  20   C } # D for Dihedral angle
{ D 17  16  20  19   C } # D for Dihedral angle
{ D 15  12  16  20   C } # D for Dihedral angle
end
end


#%pal 
#nprocs 8
#end

* xyz 0 1
C  -21.048   26.222   46.251
C  -20.361   27.558   45.944
C  -20.329   28.222   47.341
C  -20.110   27.022   48.296
O  -20.473   25.807   47.535
H  -20.833   25.428   45.533
H  -19.344   27.382   45.576
H  -20.898   28.157   45.201
H  -19.543   28.978   47.434
H  -21.289   28.710   47.548
H  -20.733   27.082   49.195
H  -19.064   26.913   48.597
C  -23.235   25.530   45.495
H  -22.787   25.540   44.495
H  -23.226   24.495   45.864
O  -22.472   26.381   46.366
C  -24.704   26.029   45.415
C  -25.572   25.076   44.587
C  -25.850   23.942   45.602
C  -25.956   24.696   46.951
O  -25.323   26.017   46.746
H  -24.712   27.064   45.069
O  -26.893   25.779   44.175
H  -25.073   24.720   43.679
H  -26.757   23.376   45.368
H  -25.010   23.237   45.619
H  -25.442   24.175   47.765
H  -26.993   24.879   47.247
H  -27.411   26.145   45.070
*
