# Test redundant internal optimization
#
! RKS B3LYP  Opt TightSCF SmallPrint

%basis
        Basis "6-31G"
end

%geom
Constraints
{ D 4  0  15  12  195.0   C } # D for Dihedral angle
{ D 0  15  12  16  135.0   C } # D for Dihedral angle
{ D 0  4  3  2   C } # D for Dihedral angle
{ D 4  3  2  1   C } # D for Dihedral angle
{ D 3  2  1  0   C } # D for Dihedral angle
{ D 2  1  0  4   C } # D for Dihedral angle
{ D 1  0  4  3   C } # D for Dihedral angle
{ D 16  20  19  18   C } # D for Dihedral angle
{ D 20  19  18  17   C } # D for Dihedral angle
{ D 19  18  17  16   C } # D for Dihedral angle
{ D 18  17  16  20   C } # D for Dihedral angle
{ D 17  16  20  19   C } # D for Dihedral angle
{ D 15  12  16  20   C } # D for Dihedral angle
end
end


#%pal 
#nprocs 8
#end

* xyz 0 1
C  -21.048   26.222   46.251
C  -20.361   27.558   45.944
C  -20.329   28.222   47.341
C  -20.110   27.022   48.296
O  -20.473   25.807   47.535
H  -20.833   25.428   45.533
H  -19.344   27.382   45.576
H  -20.898   28.157   45.201
H  -19.543   28.978   47.434
H  -21.289   28.710   47.548
H  -20.733   27.082   49.195
H  -19.064   26.913   48.597
C  -23.163   26.451   45.108
H  -23.453   27.490   44.911
H  -22.510   26.117   44.291
O  -22.472   26.381   46.366
C  -24.431   25.554   45.147
C  -25.127   25.515   43.782
C  -24.247   24.505   43.009
C  -23.831   23.491   44.103
O  -24.062   24.157   45.403
H  -25.070   25.872   45.972
O  -26.575   24.975   43.937
H  -25.176   26.496   43.296
H  -24.777   24.028   42.178
H  -23.366   25.011   42.596
H  -22.777   23.204   44.030
H  -24.447   22.587   44.090
H  -26.551   23.992   44.422
*
