# Test redundant internal optimization
#
! RKS B3LYP  Opt TightSCF SmallPrint

%basis
        Basis "6-31G"
end

%geom
Constraints
{ D 4  0  15  12  330.0   C } # D for Dihedral angle
{ D 0  15  12  16  300.0   C } # D for Dihedral angle
{ D 0  4  3  2   C } # D for Dihedral angle
{ D 4  3  2  1   C } # D for Dihedral angle
{ D 3  2  1  0   C } # D for Dihedral angle
{ D 2  1  0  4   C } # D for Dihedral angle
{ D 1  0  4  3   C } # D for Dihedral angle
{ D 16  20  19  18   C } # D for Dihedral angle
{ D 20  19  18  17   C } # D for Dihedral angle
{ D 19  18  17  16   C } # D for Dihedral angle
{ D 18  17  16  20   C } # D for Dihedral angle
{ D 17  16  20  19   C } # D for Dihedral angle
{ D 15  12  16  20   C } # D for Dihedral angle
end
end


#%pal 
#nprocs 8
#end

* xyz 0 1
C  -21.048   26.222   46.251
C  -20.361   27.558   45.944
C  -20.329   28.222   47.341
C  -20.110   27.022   48.296
O  -20.473   25.807   47.535
H  -20.833   25.428   45.533
H  -19.344   27.382   45.576
H  -20.898   28.157   45.201
H  -19.543   28.978   47.434
H  -21.289   28.710   47.548
H  -20.733   27.082   49.195
H  -19.064   26.913   48.597
C  -23.087   25.523   47.341
H  -22.664   25.737   48.330
H  -24.169   25.704   47.385
O  -22.472   26.381   46.366
C  -22.832   24.034   46.976
C  -23.573   23.093   47.932
C  -25.014   23.145   47.370
C  -24.792   23.273   45.843
O  -23.397   23.727   45.657
H  -21.757   23.860   46.912
O  -22.993   21.656   47.821
H  -23.513   23.408   48.979
H  -25.605   22.262   47.634
H  -25.538   24.026   47.759
H  -25.470   23.997   45.379
H  -24.890   22.314   45.325
H  -23.043   21.318   46.779
*
