# Test redundant internal optimization
#
! RKS B3LYP  Opt TightSCF SmallPrint

%basis
        Basis "6-31G"
end

%geom
Constraints
{ D 4  0  15  12  30.0   C } # D for Dihedral angle
{ D 0  15  12  16  270.0   C } # D for Dihedral angle
{ D 0  4  3  2   C } # D for Dihedral angle
{ D 4  3  2  1   C } # D for Dihedral angle
{ D 3  2  1  0   C } # D for Dihedral angle
{ D 2  1  0  4   C } # D for Dihedral angle
{ D 1  0  4  3   C } # D for Dihedral angle
{ D 16  20  19  18   C } # D for Dihedral angle
{ D 20  19  18  17   C } # D for Dihedral angle
{ D 19  18  17  16   C } # D for Dihedral angle
{ D 18  17  16  20   C } # D for Dihedral angle
{ D 17  16  20  19   C } # D for Dihedral angle
{ D 15  12  16  20   C } # D for Dihedral angle
end
end


#%pal 
#nprocs 8
#end

* xyz 0 1
C  -21.048   26.222   46.251
C  -20.361   27.558   45.944
C  -20.329   28.222   47.341
C  -20.110   27.022   48.296
O  -20.473   25.807   47.535
H  -20.833   25.428   45.533
H  -19.344   27.382   45.576
H  -20.898   28.157   45.201
H  -19.543   28.978   47.434
H  -21.289   28.710   47.548
H  -20.733   27.082   49.195
H  -19.064   26.913   48.597
C  -22.920   26.779   47.672
H  -22.143   27.387   48.152
H  -23.832   27.385   47.598
O  -22.472   26.381   46.366
C  -23.211   25.523   48.540
C  -23.801   25.912   49.900
C  -25.278   26.192   49.533
C  -25.567   25.153   48.422
O  -24.253   24.700   47.916
H  -22.310   24.910   48.597
O  -23.698   24.717   50.887
H  -23.304   26.777   50.353
H  -25.955   26.089   50.388
H  -25.383   27.212   49.145
H  -26.145   25.575   47.593
H  -26.088   24.269   48.803
H  -24.190   23.838   50.454
*
