# Test redundant internal optimization
#
! RKS B3LYP  Opt TightSCF SmallPrint

%basis
        Basis "6-31G"
end

%geom
Constraints
{ D 4  0  15  12  195.0   C } # D for Dihedral angle
{ D 0  15  12  16  210.0   C } # D for Dihedral angle
{ D 0  4  3  2   C } # D for Dihedral angle
{ D 4  3  2  1   C } # D for Dihedral angle
{ D 3  2  1  0   C } # D for Dihedral angle
{ D 2  1  0  4   C } # D for Dihedral angle
{ D 1  0  4  3   C } # D for Dihedral angle
{ D 16  20  19  18   C } # D for Dihedral angle
{ D 20  19  18  17   C } # D for Dihedral angle
{ D 19  18  17  16   C } # D for Dihedral angle
{ D 18  17  16  20   C } # D for Dihedral angle
{ D 17  16  20  19   C } # D for Dihedral angle
{ D 15  12  16  20   C } # D for Dihedral angle
end
end


#%pal 
#nprocs 8
#end

* xyz 0 1
C  -21.048   26.222   46.251
C  -20.361   27.558   45.944
C  -20.329   28.222   47.341
C  -20.110   27.022   48.296
O  -20.473   25.807   47.535
H  -20.833   25.428   45.533
H  -19.344   27.382   45.576
H  -20.898   28.157   45.201
H  -19.543   28.978   47.434
H  -21.289   28.710   47.548
H  -20.733   27.082   49.195
H  -19.064   26.913   48.597
C  -23.163   26.451   45.108
H  -22.498   26.886   44.353
H  -23.452   25.447   44.772
O  -22.472   26.381   46.366
C  -24.438   27.328   45.250
C  -24.080   28.783   45.572
C  -23.678   29.322   44.179
C  -24.634   28.570   43.220
O  -25.151   27.406   43.971
H  -25.117   26.860   45.966
O  -25.330   29.533   46.110
H  -23.278   28.875   46.312
H  -23.777   30.409   44.100
H  -22.633   29.065   43.963
H  -24.129   28.218   42.315
H  -25.497   29.177   42.931
H  -26.148   29.453   45.384
*
