# Test redundant internal optimization
#
! RKS B3LYP  Opt TightSCF SmallPrint

%basis
        Basis "6-31G"
end

%geom
Constraints
{ D 4  0  15  12  270.0   C } # D for Dihedral angle
{ D 0  15  12  16  255.0   C } # D for Dihedral angle
{ D 0  4  3  2   C } # D for Dihedral angle
{ D 4  3  2  1   C } # D for Dihedral angle
{ D 3  2  1  0   C } # D for Dihedral angle
{ D 2  1  0  4   C } # D for Dihedral angle
{ D 1  0  4  3   C } # D for Dihedral angle
{ D 16  20  19  18   C } # D for Dihedral angle
{ D 20  19  18  17   C } # D for Dihedral angle
{ D 19  18  17  16   C } # D for Dihedral angle
{ D 18  17  16  20   C } # D for Dihedral angle
{ D 17  16  20  19   C } # D for Dihedral angle
{ D 15  12  16  20   C } # D for Dihedral angle
end
end


#%pal 
#nprocs 8
#end

* xyz 0 1
C  -21.048   26.222   46.251
C  -20.361   27.558   45.944
C  -20.329   28.222   47.341
C  -20.110   27.022   48.296
O  -20.473   25.807   47.535
H  -20.833   25.428   45.533
H  -19.344   27.382   45.576
H  -20.898   28.157   45.201
H  -19.543   28.978   47.434
H  -21.289   28.710   47.548
H  -20.733   27.082   49.195
H  -19.064   26.913   48.597
C  -23.225   25.191   46.082
H  -22.554   24.324   46.100
H  -24.003   25.037   46.842
O  -22.472   26.381   46.366
C  -23.894   25.305   44.685
C  -22.846   25.369   43.569
C  -22.448   23.882   43.427
C  -23.776   23.134   43.699
O  -24.666   24.094   44.385
H  -24.599   26.140   44.692
O  -23.494   25.891   42.257
H  -21.996   26.016   43.814
H  -22.029   23.646   42.443
H  -21.695   23.619   44.181
H  -23.640   22.253   44.334
H  -24.280   22.830   42.777
H  -24.350   25.258   41.993
*
