# Test redundant internal optimization
#
! RKS B3LYP  Opt TightSCF SmallPrint

%basis
        Basis "6-31G"
end

%geom
Constraints
{ D 4  0  15  12  60.0   C } # D for Dihedral angle
{ D 0  15  12  16  240.0   C } # D for Dihedral angle
{ D 0  4  3  2   C } # D for Dihedral angle
{ D 4  3  2  1   C } # D for Dihedral angle
{ D 3  2  1  0   C } # D for Dihedral angle
{ D 2  1  0  4   C } # D for Dihedral angle
{ D 1  0  4  3   C } # D for Dihedral angle
{ D 16  20  19  18   C } # D for Dihedral angle
{ D 20  19  18  17   C } # D for Dihedral angle
{ D 19  18  17  16   C } # D for Dihedral angle
{ D 18  17  16  20   C } # D for Dihedral angle
{ D 17  16  20  19   C } # D for Dihedral angle
{ D 15  12  16  20   C } # D for Dihedral angle
end
end


#%pal 
#nprocs 8
#end

* xyz 0 1
C  -21.048   26.222   46.251
C  -20.361   27.558   45.944
C  -20.329   28.222   47.341
C  -20.110   27.022   48.296
O  -20.473   25.807   47.535
H  -20.833   25.428   45.533
H  -19.344   27.382   45.576
H  -20.898   28.157   45.201
H  -19.543   28.978   47.434
H  -21.289   28.710   47.548
H  -20.733   27.082   49.195
H  -19.064   26.913   48.597
C  -22.882   27.363   47.331
H  -21.993   27.811   47.792
H  -23.456   28.164   46.846
O  -22.472   26.381   46.366
C  -23.760   26.699   48.427
C  -22.958   25.675   49.239
C  -22.173   26.590   50.207
C  -23.170   27.741   50.492
O  -24.184   27.693   49.418
H  -24.667   26.300   47.966
O  -23.923   24.745   50.024
H  -22.306   25.051   48.619
H  -21.859   26.073   51.120
H  -21.271   26.974   49.714
H  -22.688   28.724   50.489
H  -23.699   27.609   51.440
H  -24.588   25.350   50.652
*
