# Test redundant internal optimization
#
! RKS B3LYP  Opt TightSCF SmallPrint

%basis
        Basis "6-31G"
end

%geom
Constraints
{ D 4  0  15  12  225.0   C } # D for Dihedral angle
{ D 0  15  12  16  315.0   C } # D for Dihedral angle
{ D 0  4  3  2   C } # D for Dihedral angle
{ D 4  3  2  1   C } # D for Dihedral angle
{ D 3  2  1  0   C } # D for Dihedral angle
{ D 2  1  0  4   C } # D for Dihedral angle
{ D 1  0  4  3   C } # D for Dihedral angle
{ D 16  20  19  18   C } # D for Dihedral angle
{ D 20  19  18  17   C } # D for Dihedral angle
{ D 19  18  17  16   C } # D for Dihedral angle
{ D 18  17  16  20   C } # D for Dihedral angle
{ D 17  16  20  19   C } # D for Dihedral angle
{ D 15  12  16  20   C } # D for Dihedral angle
end
end


#%pal 
#nprocs 8
#end

* xyz 0 1
C  -21.048   26.222   46.251
C  -20.361   27.558   45.944
C  -20.329   28.222   47.341
C  -20.110   27.022   48.296
O  -20.473   25.807   47.535
H  -20.833   25.428   45.533
H  -19.344   27.382   45.576
H  -20.898   28.157   45.201
H  -19.543   28.978   47.434
H  -21.289   28.710   47.548
H  -20.733   27.082   49.195
H  -19.064   26.913   48.597
C  -23.222   25.800   45.286
H  -23.245   24.710   45.407
H  -24.256   26.168   45.295
O  -22.472   26.381   46.366
C  -22.563   26.161   43.926
C  -21.167   25.540   43.801
C  -21.507   24.079   43.423
C  -22.771   24.229   42.540
O  -23.321   25.572   42.817
H  -22.590   27.245   43.792
O  -20.377   26.233   42.657
H  -20.579   25.616   44.722
H  -20.689   23.575   42.900
H  -21.734   23.500   44.327
H  -23.532   23.475   42.765
H  -22.539   24.190   41.472
H  -20.949   26.170   41.724
*
