# Test redundant internal optimization
#
! RKS B3LYP  Opt TightSCF SmallPrint

%basis
        Basis "6-31G"
end

%geom
Constraints
{ D 4  0  15  12  0.0   C } # D for Dihedral angle
{ D 0  15  12  16  210.0   C } # D for Dihedral angle
{ D 0  4  3  2   C } # D for Dihedral angle
{ D 4  3  2  1   C } # D for Dihedral angle
{ D 3  2  1  0   C } # D for Dihedral angle
{ D 2  1  0  4   C } # D for Dihedral angle
{ D 1  0  4  3   C } # D for Dihedral angle
{ D 16  20  19  18   C } # D for Dihedral angle
{ D 20  19  18  17   C } # D for Dihedral angle
{ D 19  18  17  16   C } # D for Dihedral angle
{ D 18  17  16  20   C } # D for Dihedral angle
{ D 17  16  20  19   C } # D for Dihedral angle
{ D 15  12  16  20   C } # D for Dihedral angle
end
end


#%pal 
#nprocs 8
#end

* xyz 0 1
C  -21.048   26.222   46.251
C  -20.361   27.558   45.944
C  -20.329   28.222   47.341
C  -20.110   27.022   48.296
O  -20.473   25.807   47.535
H  -20.833   25.428   45.533
H  -19.344   27.382   45.576
H  -20.898   28.157   45.201
H  -19.543   28.978   47.434
H  -21.289   28.710   47.548
H  -20.733   27.082   49.195
H  -19.064   26.913   48.597
C  -22.995   26.105   47.676
H  -22.360   25.359   48.169
H  -22.993   27.015   48.290
O  -22.472   26.381   46.366
C  -24.448   25.566   47.567
C  -24.487   24.214   46.846
C  -24.050   23.247   47.970
C  -24.671   23.879   49.240
O  -24.990   25.281   48.899
H  -25.082   26.336   47.120
O  -25.937   23.899   46.384
H  -23.831   24.174   45.970
H  -24.392   22.220   47.804
H  -22.956   23.226   48.045
H  -23.987   23.864   50.095
H  -25.609   23.397   49.530
H  -26.613   23.934   47.246
*
