# Test redundant internal optimization
#
! RKS B3LYP  Opt TightSCF SmallPrint

%basis
        Basis "6-31G"
end

%geom
Constraints
{ D 4  0  15  12  45.0   C } # D for Dihedral angle
{ D 0  15  12  16  120.0   C } # D for Dihedral angle
{ D 0  4  3  2   C } # D for Dihedral angle
{ D 4  3  2  1   C } # D for Dihedral angle
{ D 3  2  1  0   C } # D for Dihedral angle
{ D 2  1  0  4   C } # D for Dihedral angle
{ D 1  0  4  3   C } # D for Dihedral angle
{ D 16  20  19  18   C } # D for Dihedral angle
{ D 20  19  18  17   C } # D for Dihedral angle
{ D 19  18  17  16   C } # D for Dihedral angle
{ D 18  17  16  20   C } # D for Dihedral angle
{ D 17  16  20  19   C } # D for Dihedral angle
{ D 15  12  16  20   C } # D for Dihedral angle
end
end


#%pal 
#nprocs 8
#end

* xyz 0 1
C  -21.048   26.222   46.251
C  -20.361   27.558   45.944
C  -20.329   28.222   47.341
C  -20.110   27.022   48.296
O  -20.473   25.807   47.535
H  -20.833   25.428   45.533
H  -19.344   27.382   45.576
H  -20.898   28.157   45.201
H  -19.543   28.978   47.434
H  -21.289   28.710   47.548
H  -20.733   27.082   49.195
H  -19.064   26.913   48.597
C  -22.895   27.093   47.540
H  -23.539   26.444   48.146
H  -22.028   27.380   48.150
O  -22.472   26.381   46.366
C  -23.678   28.372   47.134
C  -24.981   28.021   46.408
C  -25.906   27.645   47.590
C  -25.452   28.610   48.713
O  -24.114   29.107   48.326
H  -23.014   29.036   46.575
O  -25.527   29.268   45.660
H  -24.865   27.208   45.684
H  -26.968   27.754   47.350
H  -25.735   26.602   47.885
H  -25.384   28.118   49.688
H  -26.106   29.483   48.802
H  -25.652   30.096   46.367
*
