# Test redundant internal optimization
#
! RKS B3LYP  Opt TightSCF SmallPrint

%basis
        Basis "6-31G"
end

%geom
Constraints
{ D 4  0  15  12  165.0   C } # D for Dihedral angle
{ D 0  15  12  16  75.0   C } # D for Dihedral angle
{ D 0  4  3  2   C } # D for Dihedral angle
{ D 4  3  2  1   C } # D for Dihedral angle
{ D 3  2  1  0   C } # D for Dihedral angle
{ D 2  1  0  4   C } # D for Dihedral angle
{ D 1  0  4  3   C } # D for Dihedral angle
{ D 16  20  19  18   C } # D for Dihedral angle
{ D 20  19  18  17   C } # D for Dihedral angle
{ D 19  18  17  16   C } # D for Dihedral angle
{ D 18  17  16  20   C } # D for Dihedral angle
{ D 17  16  20  19   C } # D for Dihedral angle
{ D 15  12  16  20   C } # D for Dihedral angle
end
end


#%pal 
#nprocs 8
#end

* xyz 0 1
C  -21.048   26.222   46.251
C  -20.361   27.558   45.944
C  -20.329   28.222   47.341
C  -20.110   27.022   48.296
O  -20.473   25.807   47.535
H  -20.833   25.428   45.533
H  -19.344   27.382   45.576
H  -20.898   28.157   45.201
H  -19.543   28.978   47.434
H  -21.289   28.710   47.548
H  -20.733   27.082   49.195
H  -19.064   26.913   48.597
C  -23.077   27.101   45.280
H  -24.086   27.415   45.570
H  -22.494   28.001   45.043
O  -22.472   26.381   46.366
C  -23.154   26.197   44.019
C  -24.082   24.999   44.248
C  -25.475   25.642   44.059
C  -25.230   26.697   42.952
O  -23.769   26.923   42.903
H  -22.141   25.931   43.707
O  -23.828   23.913   43.166
H  -23.955   24.539   45.234
H  -26.245   24.915   43.780
H  -25.796   26.127   44.990
H  -25.734   27.647   43.158
H  -25.534   26.342   41.963
H  -23.949   24.352   42.169
*
