# Test redundant internal optimization
#
! RKS B3LYP  Opt TightSCF SmallPrint

%basis
        Basis "6-31G"
end

%geom
Constraints
{ D 4  0  15  12  90.0   C } # D for Dihedral angle
{ D 0  15  12  16  180.0   C } # D for Dihedral angle
{ D 0  4  3  2   C } # D for Dihedral angle
{ D 4  3  2  1   C } # D for Dihedral angle
{ D 3  2  1  0   C } # D for Dihedral angle
{ D 2  1  0  4   C } # D for Dihedral angle
{ D 1  0  4  3   C } # D for Dihedral angle
{ D 16  20  19  18   C } # D for Dihedral angle
{ D 20  19  18  17   C } # D for Dihedral angle
{ D 19  18  17  16   C } # D for Dihedral angle
{ D 18  17  16  20   C } # D for Dihedral angle
{ D 17  16  20  19   C } # D for Dihedral angle
{ D 15  12  16  20   C } # D for Dihedral angle
end
end


#%pal 
#nprocs 8
#end

* xyz 0 1
C  -21.048   26.222   46.251
C  -20.361   27.558   45.944
C  -20.329   28.222   47.341
C  -20.110   27.022   48.296
O  -20.473   25.807   47.535
H  -20.833   25.428   45.533
H  -19.344   27.382   45.576
H  -20.898   28.157   45.201
H  -19.543   28.978   47.434
H  -21.289   28.710   47.548
H  -20.733   27.082   49.195
H  -19.064   26.913   48.597
C  -22.891   27.702   46.744
H  -22.452   27.957   47.716
H  -22.547   28.441   46.009
O  -22.472   26.381   46.366
C  -24.441   27.762   46.839
C  -24.966   26.858   47.960
C  -24.703   27.727   49.212
C  -24.952   29.167   48.700
O  -24.880   29.107   47.225
H  -24.868   27.557   45.854
O  -26.488   26.609   47.775
H  -24.461   25.887   48.001
H  -25.351   27.465   50.054
H  -23.663   27.608   49.541
H  -24.205   29.878   49.068
H  -25.949   29.535   48.959
H  -27.015   27.570   47.729
*
