# Test redundant internal optimization
#
! RKS B3LYP  Opt TightSCF SmallPrint

%basis
        Basis "6-31G"
end

%geom
Constraints
{ D 4  0  15  12  300.0   C } # D for Dihedral angle
{ D 0  15  12  16  75.0   C } # D for Dihedral angle
{ D 0  4  3  2   C } # D for Dihedral angle
{ D 4  3  2  1   C } # D for Dihedral angle
{ D 3  2  1  0   C } # D for Dihedral angle
{ D 2  1  0  4   C } # D for Dihedral angle
{ D 1  0  4  3   C } # D for Dihedral angle
{ D 16  20  19  18   C } # D for Dihedral angle
{ D 20  19  18  17   C } # D for Dihedral angle
{ D 19  18  17  16   C } # D for Dihedral angle
{ D 18  17  16  20   C } # D for Dihedral angle
{ D 17  16  20  19   C } # D for Dihedral angle
{ D 15  12  16  20   C } # D for Dihedral angle
end
end


#%pal 
#nprocs 8
#end

* xyz 0 1
C  -21.048   26.222   46.251
C  -20.361   27.558   45.944
C  -20.329   28.222   47.341
C  -20.110   27.022   48.296
O  -20.473   25.807   47.535
H  -20.833   25.428   45.533
H  -19.344   27.382   45.576
H  -20.898   28.157   45.201
H  -19.543   28.978   47.434
H  -21.289   28.710   47.548
H  -20.733   27.082   49.195
H  -19.064   26.913   48.597
C  -23.171   25.188   46.758
H  -24.242   25.313   46.556
H  -22.812   24.325   46.182
O  -22.472   26.381   46.366
C  -22.953   24.917   48.272
C  -23.573   26.024   49.131
C  -25.068   25.629   49.119
C  -25.024   24.081   49.115
O  -23.663   23.701   48.682
H  -21.890   24.744   48.455
O  -23.001   25.962   50.575
H  -23.395   27.028   48.733
H  -25.620   26.029   49.976
H  -25.549   26.004   48.208
H  -25.755   23.642   48.428
H  -25.176   23.657   50.111
H  -23.168   24.962   50.994
*
