# Test redundant internal optimization
#
! RKS B3LYP  Opt TightSCF SmallPrint

%basis
        Basis "6-31G"
end

%geom
Constraints
{ D 4  0  15  12  345.0   C } # D for Dihedral angle
{ D 0  15  12  16  90.0   C } # D for Dihedral angle
{ D 0  4  3  2   C } # D for Dihedral angle
{ D 4  3  2  1   C } # D for Dihedral angle
{ D 3  2  1  0   C } # D for Dihedral angle
{ D 2  1  0  4   C } # D for Dihedral angle
{ D 1  0  4  3   C } # D for Dihedral angle
{ D 16  20  19  18   C } # D for Dihedral angle
{ D 20  19  18  17   C } # D for Dihedral angle
{ D 19  18  17  16   C } # D for Dihedral angle
{ D 18  17  16  20   C } # D for Dihedral angle
{ D 17  16  20  19   C } # D for Dihedral angle
{ D 15  12  16  20   C } # D for Dihedral angle
end
end


#%pal 
#nprocs 8
#end

* xyz 0 1
C  -21.048   26.222   46.251
C  -20.361   27.558   45.944
C  -20.329   28.222   47.341
C  -20.110   27.022   48.296
O  -20.473   25.807   47.535
H  -20.833   25.428   45.533
H  -19.344   27.382   45.576
H  -20.898   28.157   45.201
H  -19.543   28.978   47.434
H  -21.289   28.710   47.548
H  -20.733   27.082   49.195
H  -19.064   26.913   48.597
C  -23.040   25.792   47.547
H  -24.065   25.466   47.333
H  -22.459   24.913   47.856
O  -22.472   26.381   46.366
C  -23.052   26.827   48.705
C  -23.974   28.009   48.386
C  -25.366   27.414   48.699
C  -25.088   26.480   49.902
O  -23.630   26.235   49.916
H  -22.024   27.107   48.946
O  -23.661   29.200   49.334
H  -23.883   28.359   47.352
H  -26.114   28.180   48.929
H  -25.731   26.838   47.839
H  -25.612   25.522   49.821
H  -25.346   26.944   50.859
H  -23.745   28.872   50.376
*
