# Test redundant internal optimization
#
! RKS B3LYP  Opt TightSCF SmallPrint

%basis
        Basis "6-31G"
end

%geom
Constraints
{ D 4  0  15  12  240.0   C } # D for Dihedral angle
{ D 0  15  12  16  30.0   C } # D for Dihedral angle
{ D 0  4  3  2   C } # D for Dihedral angle
{ D 4  3  2  1   C } # D for Dihedral angle
{ D 3  2  1  0   C } # D for Dihedral angle
{ D 2  1  0  4   C } # D for Dihedral angle
{ D 1  0  4  3   C } # D for Dihedral angle
{ D 16  20  19  18   C } # D for Dihedral angle
{ D 20  19  18  17   C } # D for Dihedral angle
{ D 19  18  17  16   C } # D for Dihedral angle
{ D 18  17  16  20   C } # D for Dihedral angle
{ D 17  16  20  19   C } # D for Dihedral angle
{ D 15  12  16  20   C } # D for Dihedral angle
end
end


#%pal 
#nprocs 8
#end

* xyz 0 1
C  -21.048   26.222   46.251
C  -20.361   27.558   45.944
C  -20.329   28.222   47.341
C  -20.110   27.022   48.296
O  -20.473   25.807   47.535
H  -20.833   25.428   45.533
H  -19.344   27.382   45.576
H  -20.898   28.157   45.201
H  -19.543   28.978   47.434
H  -21.289   28.710   47.548
H  -20.733   27.082   49.195
H  -19.064   26.913   48.597
C  -23.235   25.530   45.495
H  -24.201   25.306   45.963
H  -23.426   26.032   44.538
O  -22.472   26.381   46.366
C  -22.462   24.207   45.233
C  -22.300   23.392   46.520
C  -23.693   22.732   46.650
C  -24.096   22.468   45.178
O  -23.233   23.331   44.345
H  -21.524   24.437   44.721
O  -21.197   22.314   46.333
H  -22.038   24.006   47.388
H  -23.674   21.816   47.249
H  -24.396   23.427   47.125
H  -25.145   22.711   44.981
H  -23.909   21.435   44.873
H  -21.440   21.687   45.467
*
