# Test redundant internal optimization
#
! RKS B3LYP  Opt TightSCF SmallPrint

%basis
        Basis "6-31G"
end

%geom
Constraints
{ D 4  0  15  12  15.0   C } # D for Dihedral angle
{ D 0  15  12  16  165.0   C } # D for Dihedral angle
{ D 0  4  3  2   C } # D for Dihedral angle
{ D 4  3  2  1   C } # D for Dihedral angle
{ D 3  2  1  0   C } # D for Dihedral angle
{ D 2  1  0  4   C } # D for Dihedral angle
{ D 1  0  4  3   C } # D for Dihedral angle
{ D 16  20  19  18   C } # D for Dihedral angle
{ D 20  19  18  17   C } # D for Dihedral angle
{ D 19  18  17  16   C } # D for Dihedral angle
{ D 18  17  16  20   C } # D for Dihedral angle
{ D 17  16  20  19   C } # D for Dihedral angle
{ D 15  12  16  20   C } # D for Dihedral angle
end
end


#%pal 
#nprocs 8
#end

* xyz 0 1
C  -21.048   26.222   46.251
C  -20.361   27.558   45.944
C  -20.329   28.222   47.341
C  -20.110   27.022   48.296
O  -20.473   25.807   47.535
H  -20.833   25.428   45.533
H  -19.344   27.382   45.576
H  -20.898   28.157   45.201
H  -19.543   28.978   47.434
H  -21.289   28.710   47.548
H  -20.733   27.082   49.195
H  -19.064   26.913   48.597
C  -23.128   26.462   47.829
H  -23.107   25.458   48.271
H  -22.499   27.120   48.443
O  -22.586   26.394   46.375
C  -24.584   26.998   47.903
C  -25.045   27.161   49.356
C  -24.370   28.496   49.750
C  -24.426   29.320   48.439
O  -24.661   28.353   47.346
H  -25.230   26.364   47.292
H  -26.136   27.252   49.397
O  -24.618   25.978   50.267
H  -24.876   28.999   50.581
H  -23.330   28.318   50.051
H  -23.493   29.861   48.244
H  -25.258   30.029   48.427
H  -23.528   25.868   50.243
*
