# Test redundant internal optimization
#
! RKS B3LYP  Opt TightSCF SmallPrint

%basis
        Basis "6-31G"
end

%geom
Constraints
{ D 4  0  15  12  285.0   C } # D for Dihedral angle
{ D 0  15  12  16  315.0   C } # D for Dihedral angle
{ D 0  4  3  2   C } # D for Dihedral angle
{ D 4  3  2  1   C } # D for Dihedral angle
{ D 3  2  1  0   C } # D for Dihedral angle
{ D 2  1  0  4   C } # D for Dihedral angle
{ D 1  0  4  3   C } # D for Dihedral angle
{ D 16  20  19  18   C } # D for Dihedral angle
{ D 20  19  18  17   C } # D for Dihedral angle
{ D 19  18  17  16   C } # D for Dihedral angle
{ D 18  17  16  20   C } # D for Dihedral angle
{ D 17  16  20  19   C } # D for Dihedral angle
{ D 15  12  16  20   C } # D for Dihedral angle
end
end


#%pal 
#nprocs 8
#end

* xyz 0 1
C  -21.048   26.222   46.251
C  -20.361   27.558   45.944
C  -20.329   28.222   47.341
C  -20.110   27.022   48.296
O  -20.473   25.807   47.535
H  -20.833   25.428   45.533
H  -19.344   27.382   45.576
H  -20.898   28.157   45.201
H  -19.543   28.978   47.434
H  -21.289   28.710   47.548
H  -20.733   27.082   49.195
H  -19.064   26.913   48.597
C  -23.396   25.070   46.435
H  -23.284   24.622   47.431
H  -24.463   25.264   46.264
O  -22.586   26.394   46.375
C  -22.929   24.032   45.378
C  -23.823   22.787   45.388
C  -25.054   23.277   44.589
C  -24.432   24.223   43.532
O  -23.083   24.575   44.024
H  -21.866   23.827   45.522
H  -23.326   21.962   44.865
O  -24.186   22.309   46.821
H  -25.619   22.457   44.134
H  -25.735   23.828   45.248
H  -25.015   25.141   43.396
H  -24.305   23.737   42.560
H  -24.686   23.117   47.364
*
