# Test redundant internal optimization
#
! RKS B3LYP  Opt TightSCF SmallPrint

%basis
        Basis "6-31G"
end

%geom
Constraints
{ D 4  0  15  12  225.0   C } # D for Dihedral angle
{ D 0  15  12  16  15.0   C } # D for Dihedral angle
{ D 0  4  3  2   C } # D for Dihedral angle
{ D 4  3  2  1   C } # D for Dihedral angle
{ D 3  2  1  0   C } # D for Dihedral angle
{ D 2  1  0  4   C } # D for Dihedral angle
{ D 1  0  4  3   C } # D for Dihedral angle
{ D 16  20  19  18   C } # D for Dihedral angle
{ D 20  19  18  17   C } # D for Dihedral angle
{ D 19  18  17  16   C } # D for Dihedral angle
{ D 18  17  16  20   C } # D for Dihedral angle
{ D 17  16  20  19   C } # D for Dihedral angle
{ D 15  12  16  20   C } # D for Dihedral angle
end
end


#%pal 
#nprocs 8
#end

* xyz 0 1
C  -21.048   26.222   46.251
C  -20.361   27.558   45.944
C  -20.329   28.222   47.341
C  -20.110   27.022   48.296
O  -20.473   25.807   47.535
H  -20.833   25.428   45.533
H  -19.344   27.382   45.576
H  -20.898   28.157   45.201
H  -19.543   28.978   47.434
H  -21.289   28.710   47.548
H  -20.733   27.082   49.195
H  -19.064   26.913   48.597
C  -23.415   25.773   45.218
H  -24.272   25.231   45.637
H  -23.798   26.559   44.554
O  -22.586   26.394   46.375
C  -22.589   24.783   44.350
C  -23.402   24.280   43.153
C  -23.291   25.472   42.174
C  -21.861   26.008   42.434
O  -21.442   25.468   43.745
H  -22.190   23.994   44.990
H  -22.933   23.385   42.728
O  -24.873   23.935   43.516
H  -23.443   25.180   41.130
H  -24.039   26.234   42.422
H  -21.823   27.103   42.469
H  -21.140   25.652   41.693
H  -25.364   24.816   43.943
*
