# Test redundant internal optimization
#
! RKS B3LYP  Opt TightSCF SmallPrint

%basis
        Basis "6-31G"
end

%geom
Constraints
{ D 4  0  15  12  150.0   C } # D for Dihedral angle
{ D 0  15  12  16  45.0   C } # D for Dihedral angle
{ D 0  4  3  2   C } # D for Dihedral angle
{ D 4  3  2  1   C } # D for Dihedral angle
{ D 3  2  1  0   C } # D for Dihedral angle
{ D 2  1  0  4   C } # D for Dihedral angle
{ D 1  0  4  3   C } # D for Dihedral angle
{ D 16  20  19  18   C } # D for Dihedral angle
{ D 20  19  18  17   C } # D for Dihedral angle
{ D 19  18  17  16   C } # D for Dihedral angle
{ D 18  17  16  20   C } # D for Dihedral angle
{ D 17  16  20  19   C } # D for Dihedral angle
{ D 15  12  16  20   C } # D for Dihedral angle
end
end


#%pal 
#nprocs 8
#end

* xyz 0 1
C  -21.048   26.222   46.251
C  -20.361   27.558   45.944
C  -20.329   28.222   47.341
C  -20.110   27.022   48.296
O  -20.473   25.807   47.535
H  -20.833   25.428   45.533
H  -19.344   27.382   45.576
H  -20.898   28.157   45.201
H  -19.543   28.978   47.434
H  -21.289   28.710   47.548
H  -20.733   27.082   49.195
H  -19.064   26.913   48.597
C  -23.210   27.459   45.431
H  -24.298   27.325   45.404
H  -22.997   28.470   45.801
O  -22.586   26.394   46.375
C  -22.669   27.363   43.978
C  -23.217   28.497   43.105
C  -22.314   29.681   43.526
C  -20.945   29.004   43.786
O  -21.216   27.561   43.957
H  -22.862   26.361   43.590
H  -23.073   28.260   42.045
O  -24.726   28.777   43.343
H  -22.255   30.463   42.762
H  -22.699   30.140   44.445
H  -20.454   29.386   44.689
H  -20.261   29.106   42.939
H  -24.895   29.018   44.398
*
