# Test redundant internal optimization
#
! RKS B3LYP  Opt TightSCF SmallPrint

%basis
        Basis "6-31G"
end

%geom
Constraints
{ D 4  0  15  12  255.0   C } # D for Dihedral angle
{ D 0  15  12  16  120.0   C } # D for Dihedral angle
{ D 0  4  3  2   C } # D for Dihedral angle
{ D 4  3  2  1   C } # D for Dihedral angle
{ D 3  2  1  0   C } # D for Dihedral angle
{ D 2  1  0  4   C } # D for Dihedral angle
{ D 1  0  4  3   C } # D for Dihedral angle
{ D 16  20  19  18   C } # D for Dihedral angle
{ D 20  19  18  17   C } # D for Dihedral angle
{ D 19  18  17  16   C } # D for Dihedral angle
{ D 18  17  16  20   C } # D for Dihedral angle
{ D 17  16  20  19   C } # D for Dihedral angle
{ D 15  12  16  20   C } # D for Dihedral angle
end
end


#%pal 
#nprocs 8
#end

* xyz 0 1
C  -21.048   26.222   46.251
C  -20.361   27.558   45.944
C  -20.329   28.222   47.341
C  -20.110   27.022   48.296
O  -20.473   25.807   47.535
H  -20.833   25.428   45.533
H  -19.344   27.382   45.576
H  -20.898   28.157   45.201
H  -19.543   28.978   47.434
H  -21.289   28.710   47.548
H  -20.733   27.082   49.195
H  -19.064   26.913   48.597
C  -23.431   25.260   45.734
H  -24.069   25.683   44.947
H  -22.778   24.506   45.276
O  -22.586   26.394   46.375
C  -24.342   24.534   46.762
C  -25.072   23.349   46.121
C  -23.965   22.269   46.106
C  -23.182   22.550   47.413
O  -23.533   23.927   47.824
H  -24.998   25.266   47.238
H  -25.911   23.036   46.753
O  -25.622   23.667   44.703
H  -24.366   21.250   46.072
H  -23.319   22.404   45.231
H  -22.097   22.483   47.274
H  -23.477   21.885   48.229
H  -24.801   23.982   44.051
*
