# Test redundant internal optimization
#
! RKS B3LYP  Opt TightSCF SmallPrint

%basis
        Basis "6-31G"
end

%geom
Constraints
{ D 4  0  15  12  210.0   C } # D for Dihedral angle
{ D 0  15  12  16  330.0   C } # D for Dihedral angle
{ D 0  4  3  2   C } # D for Dihedral angle
{ D 4  3  2  1   C } # D for Dihedral angle
{ D 3  2  1  0   C } # D for Dihedral angle
{ D 2  1  0  4   C } # D for Dihedral angle
{ D 1  0  4  3   C } # D for Dihedral angle
{ D 16  20  19  18   C } # D for Dihedral angle
{ D 20  19  18  17   C } # D for Dihedral angle
{ D 19  18  17  16   C } # D for Dihedral angle
{ D 18  17  16  20   C } # D for Dihedral angle
{ D 17  16  20  19   C } # D for Dihedral angle
{ D 15  12  16  20   C } # D for Dihedral angle
end
end


#%pal 
#nprocs 8
#end

* xyz 0 1
C  -21.048   26.222   46.251
C  -20.361   27.558   45.944
C  -20.329   28.222   47.341
C  -20.110   27.022   48.296
O  -20.473   25.807   47.535
H  -20.833   25.428   45.533
H  -19.344   27.382   45.576
H  -20.898   28.157   45.201
H  -19.543   28.978   47.434
H  -21.289   28.710   47.548
H  -20.733   27.082   49.195
H  -19.064   26.913   48.597
C  -23.389   26.110   45.076
H  -23.673   25.051   45.050
H  -24.307   26.712   45.053
O  -22.586   26.394   46.375
C  -22.581   26.431   43.788
C  -23.441   26.250   42.532
C  -24.265   27.559   42.526
C  -23.268   28.606   43.081
O  -22.198   27.846   43.763
H  -21.657   25.849   43.791
H  -22.802   26.191   41.644
O  -24.331   24.978   42.580
H  -24.635   27.823   41.530
H  -25.132   27.461   43.190
H  -23.734   29.290   43.799
H  -22.793   29.192   42.289
H  -24.980   25.015   43.461
*
