# Test redundant internal optimization
#
! RKS B3LYP  Opt TightSCF SmallPrint

%basis
        Basis "6-31G"
end

%geom
Constraints
{ D 4  0  15  12  165.0   C } # D for Dihedral angle
{ D 0  15  12  16  300.0   C } # D for Dihedral angle
{ D 0  4  3  2   C } # D for Dihedral angle
{ D 4  3  2  1   C } # D for Dihedral angle
{ D 3  2  1  0   C } # D for Dihedral angle
{ D 2  1  0  4   C } # D for Dihedral angle
{ D 1  0  4  3   C } # D for Dihedral angle
{ D 16  20  19  18   C } # D for Dihedral angle
{ D 20  19  18  17   C } # D for Dihedral angle
{ D 19  18  17  16   C } # D for Dihedral angle
{ D 18  17  16  20   C } # D for Dihedral angle
{ D 17  16  20  19   C } # D for Dihedral angle
{ D 15  12  16  20   C } # D for Dihedral angle
end
end


#%pal 
#nprocs 8
#end

* xyz 0 1
C  -21.048   26.222   46.251
C  -20.361   27.558   45.944
C  -20.329   28.222   47.341
C  -20.110   27.022   48.296
O  -20.473   25.807   47.535
H  -20.833   25.428   45.533
H  -19.344   27.382   45.576
H  -20.898   28.157   45.201
H  -19.543   28.978   47.434
H  -21.289   28.710   47.548
H  -20.733   27.082   49.195
H  -19.064   26.913   48.597
C  -23.260   27.170   45.210
H  -23.085   26.634   44.269
H  -24.344   27.238   45.370
O  -22.586   26.394   46.375
C  -22.713   28.617   45.057
C  -23.479   29.389   43.978
C  -24.768   29.791   44.734
C  -24.264   30.048   46.176
O  -22.946   29.385   46.285
H  -21.633   28.577   44.904
H  -22.913   30.279   43.678
O  -23.766   28.541   42.708
H  -25.258   30.669   44.300
H  -25.487   28.964   44.718
H  -24.937   29.635   46.935
H  -24.108   31.111   46.381
H  -24.332   27.645   42.983
*
