# Test redundant internal optimization
#
! RKS B3LYP  Opt TightSCF SmallPrint

%basis
        Basis "6-31G"
end

%geom
Constraints
{ D 4  0  15  12  180.0   C } # D for Dihedral angle
{ D 0  15  12  16  300.0   C } # D for Dihedral angle
{ D 0  4  3  2   C } # D for Dihedral angle
{ D 4  3  2  1   C } # D for Dihedral angle
{ D 3  2  1  0   C } # D for Dihedral angle
{ D 2  1  0  4   C } # D for Dihedral angle
{ D 1  0  4  3   C } # D for Dihedral angle
{ D 16  20  19  18   C } # D for Dihedral angle
{ D 20  19  18  17   C } # D for Dihedral angle
{ D 19  18  17  16   C } # D for Dihedral angle
{ D 18  17  16  20   C } # D for Dihedral angle
{ D 17  16  20  19   C } # D for Dihedral angle
{ D 15  12  16  20   C } # D for Dihedral angle
end
end


#%pal 
#nprocs 8
#end

* xyz 0 1
C  -21.048   26.222   46.251
C  -20.361   27.558   45.944
C  -20.329   28.222   47.341
C  -20.110   27.022   48.296
O  -20.473   25.807   47.535
H  -20.833   25.428   45.533
H  -19.344   27.382   45.576
H  -20.898   28.157   45.201
H  -19.543   28.978   47.434
H  -21.289   28.710   47.548
H  -20.733   27.082   49.195
H  -19.064   26.913   48.597
C  -23.309   26.834   45.072
H  -23.145   26.077   44.295
H  -24.389   26.922   45.243
O  -22.586   26.394   46.375
C  -22.802   28.201   44.537
C  -23.614   28.658   43.320
C  -24.892   29.219   43.988
C  -24.357   29.845   45.299
O  -23.022   29.255   45.533
H  -21.725   28.142   44.365
H  -23.078   29.450   42.785
O  -23.913   27.508   42.319
H  -25.415   29.947   43.360
H  -25.591   28.403   44.207
H  -25.000   29.629   46.160
H  -24.222   30.928   45.220
H  -24.450   26.703   42.832
*
