# Test redundant internal optimization
#
! RKS B3LYP  Opt TightSCF SmallPrint

%basis
        Basis "6-31G"
end

%geom
Constraints
{ D 4  0  15  12  105.0   C } # D for Dihedral angle
{ D 0  15  12  16  255.0   C } # D for Dihedral angle
{ D 0  4  3  2   C } # D for Dihedral angle
{ D 4  3  2  1   C } # D for Dihedral angle
{ D 3  2  1  0   C } # D for Dihedral angle
{ D 2  1  0  4   C } # D for Dihedral angle
{ D 1  0  4  3   C } # D for Dihedral angle
{ D 16  20  19  18   C } # D for Dihedral angle
{ D 20  19  18  17   C } # D for Dihedral angle
{ D 19  18  17  16   C } # D for Dihedral angle
{ D 18  17  16  20   C } # D for Dihedral angle
{ D 17  16  20  19   C } # D for Dihedral angle
{ D 15  12  16  20   C } # D for Dihedral angle
end
end


#%pal 
#nprocs 8
#end

* xyz 0 1
C  -21.048   26.222   46.251
C  -20.361   27.558   45.944
C  -20.329   28.222   47.341
C  -20.110   27.022   48.296
O  -20.473   25.807   47.535
H  -20.833   25.428   45.533
H  -19.344   27.382   45.576
H  -20.898   28.157   45.201
H  -19.543   28.978   47.434
H  -21.289   28.710   47.548
H  -20.733   27.082   49.195
H  -19.064   26.913   48.597
C  -23.085   27.864   46.420
H  -22.281   28.530   46.080
H  -23.946   27.999   45.753
O  -22.586   26.394   46.375
C  -23.517   28.309   47.845
C  -24.110   29.722   47.832
C  -25.543   29.455   47.313
C  -25.892   28.080   47.935
O  -24.610   27.463   48.336
H  -22.677   28.177   48.531
H  -24.137   30.129   48.849
O  -23.317   30.708   46.931
H  -26.252   30.237   47.604
H  -25.542   29.395   46.218
H  -26.403   27.417   47.227
H  -26.502   28.173   48.837
H  -23.277   30.322   45.906
*
