# Test redundant internal optimization
#
! RKS B3LYP  Opt TightSCF SmallPrint

%basis
        Basis "6-31G"
end

%geom
Constraints
{ D 4  0  15  12  0.0   C } # D for Dihedral angle
{ D 0  15  12  16  225.0   C } # D for Dihedral angle
{ D 0  4  3  2   C } # D for Dihedral angle
{ D 4  3  2  1   C } # D for Dihedral angle
{ D 3  2  1  0   C } # D for Dihedral angle
{ D 2  1  0  4   C } # D for Dihedral angle
{ D 1  0  4  3   C } # D for Dihedral angle
{ D 16  20  19  18   C } # D for Dihedral angle
{ D 20  19  18  17   C } # D for Dihedral angle
{ D 19  18  17  16   C } # D for Dihedral angle
{ D 18  17  16  20   C } # D for Dihedral angle
{ D 17  16  20  19   C } # D for Dihedral angle
{ D 15  12  16  20   C } # D for Dihedral angle
end
end


#%pal 
#nprocs 8
#end

* xyz 0 1
C  -21.048   26.222   46.251
C  -20.361   27.558   45.944
C  -20.329   28.222   47.341
C  -20.110   27.022   48.296
O  -20.473   25.807   47.535
H  -20.833   25.428   45.533
H  -19.344   27.382   45.576
H  -20.898   28.157   45.201
H  -19.543   28.978   47.434
H  -21.289   28.710   47.548
H  -20.733   27.082   49.195
H  -19.064   26.913   48.597
C  -23.172   26.101   47.783
H  -22.422   25.572   48.385
H  -23.425   27.037   48.297
O  -22.586   26.394   46.375
C  -24.457   25.229   47.730
C  -25.072   25.057   49.123
C  -25.808   26.405   49.310
C  -26.304   26.736   47.880
O  -25.503   25.906   46.955
H  -24.233   24.293   47.215
H  -25.784   24.225   49.121
O  -24.013   24.791   50.228
H  -26.628   26.344   50.033
H  -25.107   27.171   49.663
H  -26.167   27.793   47.623
H  -27.353   26.467   47.730
H  -23.288   25.612   50.251
*
