# Test redundant internal optimization
#
! RKS B3LYP  Opt TightSCF SmallPrint

%basis
        Basis "6-31G"
end

%geom
Constraints
{ D 4  0  15  12  240.0   C } # D for Dihedral angle
{ D 0  15  12  16  150.0   C } # D for Dihedral angle
{ D 0  4  3  2   C } # D for Dihedral angle
{ D 4  3  2  1   C } # D for Dihedral angle
{ D 3  2  1  0   C } # D for Dihedral angle
{ D 2  1  0  4   C } # D for Dihedral angle
{ D 1  0  4  3   C } # D for Dihedral angle
{ D 16  20  19  18   C } # D for Dihedral angle
{ D 20  19  18  17   C } # D for Dihedral angle
{ D 19  18  17  16   C } # D for Dihedral angle
{ D 18  17  16  20   C } # D for Dihedral angle
{ D 17  16  20  19   C } # D for Dihedral angle
{ D 15  12  16  20   C } # D for Dihedral angle
end
end


#%pal 
#nprocs 8
#end

* xyz 0 1
C  -21.048   26.222   46.251
C  -20.361   27.558   45.944
C  -20.329   28.222   47.341
C  -20.110   27.022   48.296
O  -20.473   25.807   47.535
H  -20.833   25.428   45.533
H  -19.344   27.382   45.576
H  -20.898   28.157   45.201
H  -19.543   28.978   47.434
H  -21.289   28.710   47.548
H  -20.733   27.082   49.195
H  -19.064   26.913   48.597
C  -23.430   25.483   45.442
H  -23.596   25.997   44.488
H  -22.898   24.545   45.238
O  -22.586   26.394   46.375
C  -24.813   25.119   46.049
C  -24.663   24.474   47.432
C  -24.422   25.712   48.330
C  -25.304   26.801   47.671
O  -25.598   26.332   46.299
H  -25.373   24.518   45.329
H  -25.592   23.968   47.713
O  -23.502   23.445   47.503
H  -24.689   25.536   49.376
H  -23.365   26.000   48.298
H  -24.802   27.773   47.618
H  -26.264   26.926   48.180
H  -22.561   23.931   47.224
*
