# Test redundant internal optimization
#
! RKS B3LYP  Opt TightSCF SmallPrint

%basis
        Basis "6-31G"
end

%geom
Constraints
{ D 4  0  15  12  75.0   C } # D for Dihedral angle
{ D 0  15  12  16  165.0   C } # D for Dihedral angle
{ D 0  4  3  2   C } # D for Dihedral angle
{ D 4  3  2  1   C } # D for Dihedral angle
{ D 3  2  1  0   C } # D for Dihedral angle
{ D 2  1  0  4   C } # D for Dihedral angle
{ D 1  0  4  3   C } # D for Dihedral angle
{ D 16  20  19  18   C } # D for Dihedral angle
{ D 20  19  18  17   C } # D for Dihedral angle
{ D 19  18  17  16   C } # D for Dihedral angle
{ D 18  17  16  20   C } # D for Dihedral angle
{ D 17  16  20  19   C } # D for Dihedral angle
{ D 15  12  16  20   C } # D for Dihedral angle
end
end


#%pal 
#nprocs 8
#end

* xyz 0 1
C  -21.048   26.222   46.251
C  -20.361   27.558   45.944
C  -20.329   28.222   47.341
C  -20.110   27.022   48.296
O  -20.473   25.807   47.535
H  -20.833   25.428   45.533
H  -19.344   27.382   45.576
H  -20.898   28.157   45.201
H  -19.543   28.978   47.434
H  -21.289   28.710   47.548
H  -20.733   27.082   49.195
H  -19.064   26.913   48.597
C  -23.049   27.675   47.122
H  -22.879   27.547   48.198
H  -22.473   28.546   46.784
O  -22.586   26.394   46.375
C  -24.555   27.989   46.899
C  -24.887   28.091   45.406
C  -24.980   26.600   45.002
C  -25.587   25.932   46.261
O  -25.386   26.880   47.379
H  -24.827   28.869   47.484
H  -25.853   28.589   45.269
O  -23.815   28.869   44.594
H  -25.591   26.439   44.108
H  -23.978   26.202   44.799
H  -25.104   24.980   46.506
H  -26.665   25.769   46.168
H  -22.839   28.387   44.716
*
