# Test redundant internal optimization
#
! RKS B3LYP  Opt TightSCF SmallPrint

%basis
        Basis "6-31G"
end

%geom
Constraints
{ D 4  0  15  12  105.0   C } # D for Dihedral angle
{ D 0  15  12  16  240.0   C } # D for Dihedral angle
{ D 0  4  3  2   C } # D for Dihedral angle
{ D 4  3  2  1   C } # D for Dihedral angle
{ D 3  2  1  0   C } # D for Dihedral angle
{ D 2  1  0  4   C } # D for Dihedral angle
{ D 1  0  4  3   C } # D for Dihedral angle
{ D 16  20  19  18   C } # D for Dihedral angle
{ D 20  19  18  17   C } # D for Dihedral angle
{ D 19  18  17  16   C } # D for Dihedral angle
{ D 18  17  16  20   C } # D for Dihedral angle
{ D 17  16  20  19   C } # D for Dihedral angle
{ D 15  12  16  20   C } # D for Dihedral angle
end
end


#%pal 
#nprocs 8
#end

* xyz 0 1
C  -21.048   26.222   46.251
C  -20.361   27.558   45.944
C  -20.329   28.222   47.341
C  -20.110   27.022   48.296
O  -20.473   25.807   47.535
H  -20.833   25.428   45.533
H  -19.344   27.382   45.576
H  -20.898   28.157   45.201
H  -19.543   28.978   47.434
H  -21.289   28.710   47.548
H  -20.733   27.082   49.195
H  -19.064   26.913   48.597
C  -23.085   27.864   46.420
H  -22.224   28.541   46.345
H  -23.756   28.068   45.576
O  -22.586   26.394   46.375
C  -23.854   28.198   47.728
C  -25.023   27.230   47.948
C  -24.297   25.985   48.511
C  -23.151   26.596   49.354
O  -22.992   27.994   48.897
H  -24.136   29.252   47.719
H  -25.716   27.641   48.690
O  -25.818   26.928   46.649
H  -24.955   25.342   49.105
H  -23.892   25.382   47.689
H  -22.202   26.065   49.222
H  -23.390   26.632   50.421
H  -25.143   26.515   45.892
*
