# Test redundant internal optimization
#
! RKS B3LYP  Opt TightSCF SmallPrint

%basis
        Basis "6-31G"
end

%geom
Constraints
{ D 4  0  15  12  60.0   C } # D for Dihedral angle
{ D 0  15  12  16  180.0   C } # D for Dihedral angle
{ D 0  4  3  2   C } # D for Dihedral angle
{ D 4  3  2  1   C } # D for Dihedral angle
{ D 3  2  1  0   C } # D for Dihedral angle
{ D 2  1  0  4   C } # D for Dihedral angle
{ D 1  0  4  3   C } # D for Dihedral angle
{ D 16  20  19  18   C } # D for Dihedral angle
{ D 20  19  18  17   C } # D for Dihedral angle
{ D 19  18  17  16   C } # D for Dihedral angle
{ D 18  17  16  20   C } # D for Dihedral angle
{ D 17  16  20  19   C } # D for Dihedral angle
{ D 15  12  16  20   C } # D for Dihedral angle
end
end


#%pal 
#nprocs 8
#end

* xyz 0 1
C  -21.048   26.222   46.251
C  -20.361   27.558   45.944
C  -20.329   28.222   47.341
C  -20.110   27.022   48.296
O  -20.473   25.807   47.535
H  -20.833   25.428   45.533
H  -19.344   27.382   45.576
H  -20.898   28.157   45.201
H  -19.543   28.978   47.434
H  -21.289   28.710   47.548
H  -20.733   27.082   49.195
H  -19.064   26.913   48.597
C  -23.051   27.452   47.413
H  -22.677   27.172   48.406
H  -22.647   28.441   47.161
O  -22.586   26.394   46.375
C  -24.597   27.578   47.491
C  -25.202   27.879   46.115
C  -25.195   26.479   45.456
C  -25.487   25.529   46.645
O  -25.197   26.296   47.877
H  -24.859   28.299   48.267
H  -26.227   28.248   46.227
O  -24.389   28.927   45.307
H  -25.934   26.382   44.655
H  -24.207   26.269   45.028
H  -24.862   24.630   46.627
H  -26.538   25.230   46.692
H  -23.358   28.578   45.183
*
