# Test redundant internal optimization
#
! RKS B3LYP  Opt TightSCF SmallPrint

%basis
        Basis "6-31G"
end

%geom
Constraints
{ D 4  0  15  12  165.0   C } # D for Dihedral angle
{ D 0  15  12  16  105.0   C } # D for Dihedral angle
{ D 0  4  3  2   C } # D for Dihedral angle
{ D 4  3  2  1   C } # D for Dihedral angle
{ D 3  2  1  0   C } # D for Dihedral angle
{ D 2  1  0  4   C } # D for Dihedral angle
{ D 1  0  4  3   C } # D for Dihedral angle
{ D 16  20  19  18   C } # D for Dihedral angle
{ D 20  19  18  17   C } # D for Dihedral angle
{ D 19  18  17  16   C } # D for Dihedral angle
{ D 18  17  16  20   C } # D for Dihedral angle
{ D 17  16  20  19   C } # D for Dihedral angle
{ D 15  12  16  20   C } # D for Dihedral angle
end
end


#%pal 
#nprocs 8
#end

* xyz 0 1
C  -21.048   26.222   46.251
C  -20.361   27.558   45.944
C  -20.329   28.222   47.341
C  -20.110   27.022   48.296
O  -20.473   25.807   47.535
H  -20.833   25.428   45.533
H  -19.344   27.382   45.576
H  -20.898   28.157   45.201
H  -19.543   28.978   47.434
H  -21.289   28.710   47.548
H  -20.733   27.082   49.195
H  -19.064   26.913   48.597
C  -23.077   27.101   45.280
H  -23.780   27.840   45.682
H  -22.313   27.636   44.700
O  -22.472   26.381   46.366
C  -23.831   26.117   44.343
C  -24.389   26.838   43.112
C  -23.129   26.962   42.222
C  -22.357   25.654   42.522
O  -22.904   25.124   43.790
H  -24.576   25.571   44.924
O  -25.465   25.958   42.419
H  -24.839   27.809   43.349
H  -23.369   27.072   41.159
H  -22.540   27.836   42.524
H  -21.281   25.818   42.636
H  -22.519   24.889   41.757
H  -25.036   24.979   42.172
*
