# Test redundant internal optimization
#
! RKS B3LYP  Opt TightSCF SmallPrint

%basis
        Basis "6-31G"
end

%geom
Constraints
{ D 4  0  15  12  195.0   C } # D for Dihedral angle
{ D 0  15  12  16  195.0   C } # D for Dihedral angle
{ D 0  4  3  2   C } # D for Dihedral angle
{ D 4  3  2  1   C } # D for Dihedral angle
{ D 3  2  1  0   C } # D for Dihedral angle
{ D 2  1  0  4   C } # D for Dihedral angle
{ D 1  0  4  3   C } # D for Dihedral angle
{ D 16  20  19  18   C } # D for Dihedral angle
{ D 20  19  18  17   C } # D for Dihedral angle
{ D 19  18  17  16   C } # D for Dihedral angle
{ D 18  17  16  20   C } # D for Dihedral angle
{ D 17  16  20  19   C } # D for Dihedral angle
{ D 15  12  16  20   C } # D for Dihedral angle
end
end


#%pal 
#nprocs 8
#end

* xyz 0 1
C  -21.048   26.222   46.251
C  -20.361   27.558   45.944
C  -20.329   28.222   47.341
C  -20.110   27.022   48.296
O  -20.473   25.807   47.535
H  -20.833   25.428   45.533
H  -19.344   27.382   45.576
H  -20.898   28.157   45.201
H  -19.543   28.978   47.434
H  -21.289   28.710   47.548
H  -20.733   27.082   49.195
H  -19.064   26.913   48.597
C  -23.163   26.451   45.108
H  -22.616   27.117   44.430
H  -23.217   25.458   44.643
O  -22.472   26.381   46.366
C  -24.604   26.993   45.322
C  -25.406   26.970   44.017
C  -25.814   25.480   43.924
C  -26.037   25.084   45.404
O  -25.354   26.110   46.222
H  -24.551   27.970   45.804
O  -26.662   27.875   44.146
H  -24.827   27.307   43.150
H  -26.706   25.321   43.310
H  -24.998   24.893   43.487
H  -25.622   24.100   45.643
H  -27.095   25.100   45.686
H  -27.258   27.555   45.009
*
