# Test redundant internal optimization
#
! RKS B3LYP  Opt TightSCF SmallPrint

%basis
        Basis "6-31G"
end

%geom
Constraints
{ D 4  0  15  12  315.0   C } # D for Dihedral angle
{ D 0  15  12  16  150.0   C } # D for Dihedral angle
{ D 0  4  3  2   C } # D for Dihedral angle
{ D 4  3  2  1   C } # D for Dihedral angle
{ D 3  2  1  0   C } # D for Dihedral angle
{ D 2  1  0  4   C } # D for Dihedral angle
{ D 1  0  4  3   C } # D for Dihedral angle
{ D 16  20  19  18   C } # D for Dihedral angle
{ D 20  19  18  17   C } # D for Dihedral angle
{ D 19  18  17  16   C } # D for Dihedral angle
{ D 18  17  16  20   C } # D for Dihedral angle
{ D 17  16  20  19   C } # D for Dihedral angle
{ D 15  12  16  20   C } # D for Dihedral angle
end
end


#%pal 
#nprocs 8
#end

* xyz 0 1
C  -21.048   26.222   46.251
C  -20.361   27.558   45.944
C  -20.329   28.222   47.341
C  -20.110   27.022   48.296
O  -20.473   25.807   47.535
H  -20.833   25.428   45.533
H  -19.344   27.382   45.576
H  -20.898   28.157   45.201
H  -19.543   28.978   47.434
H  -21.289   28.710   47.548
H  -20.733   27.082   49.195
H  -19.064   26.913   48.597
C  -23.131   25.317   47.072
H  -23.419   24.534   46.361
H  -22.456   24.873   47.816
O  -22.472   26.381   46.366
C  -24.397   25.860   47.792
C  -25.058   24.775   48.649
C  -24.155   24.773   49.905
C  -23.763   26.264   50.059
O  -24.030   26.906   48.753
H  -25.058   26.320   47.056
O  -26.507   25.195   49.016
H  -25.097   23.799   48.152
H  -24.662   24.381   50.792
H  -23.265   24.157   49.729
H  -22.707   26.396   50.314
H  -24.375   26.782   50.803
H  -26.492   26.171   49.516
*
