# Test redundant internal optimization
#
! RKS B3LYP  Opt TightSCF SmallPrint

%basis
        Basis "6-31G"
end

%geom
Constraints
{ D 4  0  15  12  255.0   C } # D for Dihedral angle
{ D 0  15  12  16  30.0   C } # D for Dihedral angle
{ D 0  4  3  2   C } # D for Dihedral angle
{ D 4  3  2  1   C } # D for Dihedral angle
{ D 3  2  1  0   C } # D for Dihedral angle
{ D 2  1  0  4   C } # D for Dihedral angle
{ D 1  0  4  3   C } # D for Dihedral angle
{ D 16  20  19  18   C } # D for Dihedral angle
{ D 20  19  18  17   C } # D for Dihedral angle
{ D 19  18  17  16   C } # D for Dihedral angle
{ D 18  17  16  20   C } # D for Dihedral angle
{ D 17  16  20  19   C } # D for Dihedral angle
{ D 15  12  16  20   C } # D for Dihedral angle
end
end


#%pal 
#nprocs 8
#end

* xyz 0 1
C  -21.048   26.222   46.251
C  -20.361   27.558   45.944
C  -20.329   28.222   47.341
C  -20.110   27.022   48.296
O  -20.473   25.807   47.535
H  -20.833   25.428   45.533
H  -19.344   27.382   45.576
H  -20.898   28.157   45.201
H  -19.543   28.978   47.434
H  -21.289   28.710   47.548
H  -20.733   27.082   49.195
H  -19.064   26.913   48.597
C  -23.236   25.322   45.767
H  -24.184   25.209   46.306
H  -23.464   25.558   44.719
O  -22.472   26.381   46.366
C  -22.439   23.990   45.827
C  -23.176   22.865   45.093
C  -22.838   23.180   43.616
C  -21.393   23.731   43.696
O  -21.168   24.120   45.105
H  -22.193   23.766   46.867
O  -22.595   21.486   45.506
H  -24.254   22.858   45.290
H  -22.916   22.302   42.967
H  -23.522   23.945   43.228
H  -21.241   24.604   43.053
H  -20.644   22.973   43.447
H  -21.514   21.471   45.317
*
