# Test redundant internal optimization
#
! RKS B3LYP  Opt TightSCF SmallPrint

%basis
        Basis "6-31G"
end

%geom
Constraints
{ D 4  0  15  12  180.0   C } # D for Dihedral angle
{ D 0  15  12  16  240.0   C } # D for Dihedral angle
{ D 0  4  3  2   C } # D for Dihedral angle
{ D 4  3  2  1   C } # D for Dihedral angle
{ D 3  2  1  0   C } # D for Dihedral angle
{ D 2  1  0  4   C } # D for Dihedral angle
{ D 1  0  4  3   C } # D for Dihedral angle
{ D 16  20  19  18   C } # D for Dihedral angle
{ D 20  19  18  17   C } # D for Dihedral angle
{ D 19  18  17  16   C } # D for Dihedral angle
{ D 18  17  16  20   C } # D for Dihedral angle
{ D 17  16  20  19   C } # D for Dihedral angle
{ D 15  12  16  20   C } # D for Dihedral angle
end
end


#%pal 
#nprocs 8
#end

* xyz 0 1
C  -21.048   26.222   46.251
C  -20.361   27.558   45.944
C  -20.329   28.222   47.341
C  -20.110   27.022   48.296
O  -20.473   25.807   47.535
H  -20.833   25.428   45.533
H  -19.344   27.382   45.576
H  -20.898   28.157   45.201
H  -19.543   28.978   47.434
H  -21.289   28.710   47.548
H  -20.733   27.082   49.195
H  -19.064   26.913   48.597
C  -23.122   26.788   45.151
H  -22.374   26.889   44.356
H  -23.856   26.034   44.836
O  -22.472   26.381   46.366
C  -23.846   28.146   45.363
C  -24.646   28.551   44.121
C  -25.914   27.676   44.265
C  -26.137   27.630   45.797
O  -24.857   28.028   46.421
H  -23.121   28.890   45.696
O  -25.010   30.059   44.188
H  -24.108   28.368   43.184
H  -26.777   28.087   43.730
H  -25.725   26.670   43.872
H  -26.414   26.631   46.151
H  -26.894   28.346   46.130
H  -25.551   30.266   45.119
*
