# Test redundant internal optimization
#
! RKS B3LYP  Opt TightSCF SmallPrint

%basis
        Basis "6-31G"
end

%geom
Constraints
{ D 4  0  19  14  300.0   C } # D for Dihedral angle
{ D 0  19  14  12  315.0   C } # D for Dihedral angle
{ D 0  4  3  2   C } # D for Dihedral angle
{ D 4  3  2  1   C } # D for Dihedral angle
{ D 3  2  1  0   C } # D for Dihedral angle
{ D 2  1  0  4   C } # D for Dihedral angle
{ D 1  0  4  3   C } # D for Dihedral angle
{ D 14  15  16  17   C } # D for Dihedral angle
{ D 15  16  17  12   C } # D for Dihedral angle
{ D 16  17  12  14   C } # D for Dihedral angle
{ D 17  12  14  15   C } # D for Dihedral angle
{ D 12  14  15  16   C } # D for Dihedral angle
end
end


#%pal 
#nprocs 8
#end

* xyz 0 1
C  -21.048   26.222   46.251
C  -20.361   27.558   45.944
C  -20.329   28.222   47.341
C  -20.110   27.022   48.296
O  -20.473   25.807   47.535
H  -20.833   25.428   45.533
H  -19.344   27.382   45.576
H  -20.898   28.157   45.201
H  -19.543   28.978   47.434
H  -21.289   28.710   47.548
H  -20.733   27.082   49.195
H  -19.064   26.913   48.597
C  -22.652   23.988   45.958
H  -23.347   23.136   46.018
C  -23.171   25.189   46.758
C  -22.800   24.788   48.204
C  -21.459   24.033   48.027
O  -21.375   23.653   46.599
H  -22.437   24.201   44.910
O  -22.472   26.381   46.366
H  -24.246   25.360   46.627
H  -22.709   25.648   48.874
H  -23.566   24.121   48.620
H  -21.400   23.128   48.642
H  -20.591   24.664   48.242
*
