# Test redundant internal optimization
#
! RKS B3LYP  Opt TightSCF SmallPrint

%basis
        Basis "6-31G"
end

%geom
Constraints
{ D 4  0  19  14  15.0   C } # D for Dihedral angle
{ D 0  19  14  12  120.0   C } # D for Dihedral angle
{ D 0  4  3  2   C } # D for Dihedral angle
{ D 4  3  2  1   C } # D for Dihedral angle
{ D 3  2  1  0   C } # D for Dihedral angle
{ D 2  1  0  4   C } # D for Dihedral angle
{ D 1  0  4  3   C } # D for Dihedral angle
{ D 14  15  16  17   C } # D for Dihedral angle
{ D 15  16  17  12   C } # D for Dihedral angle
{ D 16  17  12  14   C } # D for Dihedral angle
{ D 17  12  14  15   C } # D for Dihedral angle
{ D 12  14  15  16   C } # D for Dihedral angle
end
end


#%pal 
#nprocs 8
#end

* xyz 0 1
C  -21.048   26.222   46.251
C  -20.361   27.558   45.944
C  -20.329   28.222   47.341
C  -20.110   27.022   48.296
O  -20.473   25.807   47.535
H  -20.833   25.428   45.533
H  -19.344   27.382   45.576
H  -20.898   28.157   45.201
H  -19.543   28.978   47.434
H  -21.289   28.710   47.548
H  -20.733   27.082   49.195
H  -19.064   26.913   48.597
C  -23.666   27.777   47.963
H  -23.786   27.976   49.039
C  -22.954   26.442   47.718
C  -24.102   25.429   47.935
C  -25.341   26.177   47.381
O  -24.976   27.610   47.324
H  -23.189   28.638   47.491
O  -22.472   26.381   46.366
H  -22.108   26.276   48.394
H  -23.929   24.475   47.428
H  -24.225   25.221   49.005
H  -26.224   26.056   48.016
H  -25.593   25.869   46.361
*
