# Test redundant internal optimization
#
! RKS B3LYP  Opt TightSCF SmallPrint

%basis
        Basis "6-31G"
end

%geom
Constraints
{ D 4  0  19  14  165.0   C } # D for Dihedral angle
{ D 0  19  14  12  75.0   C } # D for Dihedral angle
{ D 0  4  3  2   C } # D for Dihedral angle
{ D 4  3  2  1   C } # D for Dihedral angle
{ D 3  2  1  0   C } # D for Dihedral angle
{ D 2  1  0  4   C } # D for Dihedral angle
{ D 1  0  4  3   C } # D for Dihedral angle
{ D 14  15  16  17   C } # D for Dihedral angle
{ D 15  16  17  12   C } # D for Dihedral angle
{ D 16  17  12  14   C } # D for Dihedral angle
{ D 17  12  14  15   C } # D for Dihedral angle
{ D 12  14  15  16   C } # D for Dihedral angle
end
end


#%pal 
#nprocs 8
#end

* xyz 0 1
C  -21.048   26.222   46.251
C  -20.361   27.558   45.944
C  -20.329   28.222   47.341
C  -20.110   27.022   48.296
O  -20.473   25.807   47.535
H  -20.833   25.428   45.533
H  -19.344   27.382   45.576
H  -20.898   28.157   45.201
H  -19.543   28.978   47.434
H  -21.289   28.710   47.548
H  -20.733   27.082   49.195
H  -19.064   26.913   48.597
C  -23.153   26.209   44.036
H  -23.336   26.803   43.127
C  -23.077   27.101   45.280
C  -24.573   27.367   45.567
C  -25.253   26.036   45.162
O  -24.288   25.317   44.300
H  -22.279   25.575   43.879
O  -22.472   26.381   46.366
H  -22.506   28.021   45.115
H  -24.765   27.633   46.612
H  -24.937   28.192   44.941
H  -26.184   26.190   44.606
H  -25.456   25.391   46.023
*
