# Test redundant internal optimization
#
! RKS B3LYP  Opt TightSCF SmallPrint

%basis
        Basis "6-31G"
end

%geom
Constraints
{ D 4  0  15  12  180.0   C } # D for Dihedral angle
{ D 0  15  12  16  150.0   C } # D for Dihedral angle
{ D 0  4  3  2   C } # D for Dihedral angle
{ D 4  3  2  1   C } # D for Dihedral angle
{ D 3  2  1  0   C } # D for Dihedral angle
{ D 2  1  0  4   C } # D for Dihedral angle
{ D 1  0  4  3   C } # D for Dihedral angle
{ D 16  20  19  18   C } # D for Dihedral angle
{ D 20  19  18  17   C } # D for Dihedral angle
{ D 19  18  17  16   C } # D for Dihedral angle
{ D 18  17  16  20   C } # D for Dihedral angle
{ D 17  16  20  19   C } # D for Dihedral angle
{ D 15  12  16  20   C } # D for Dihedral angle
end
end


#%pal 
#nprocs 8
#end

* xyz 0 1
C  -21.048   26.222   46.251
C  -20.361   27.558   45.944
C  -20.329   28.222   47.341
C  -20.110   27.022   48.296
O  -20.473   25.807   47.535
H  -20.833   25.428   45.533
H  -19.344   27.382   45.576
H  -20.898   28.157   45.201
H  -19.543   28.978   47.434
H  -21.289   28.710   47.548
H  -20.733   27.082   49.195
H  -19.064   26.913   48.597
C  -23.309   26.834   45.072
H  -23.337   27.929   45.026
H  -22.767   26.467   44.190
O  -22.586   26.394   46.375
C  -24.767   26.303   44.986
C  -25.644   26.904   46.090
C  -25.956   28.306   45.514
C  -26.062   28.045   43.991
O  -25.400   26.747   43.740
H  -24.750   25.212   44.965
H  -26.563   26.318   46.200
O  -24.933   26.964   47.470
H  -26.871   28.741   45.928
H  -25.130   28.994   45.732
H  -25.568   28.821   43.397
H  -27.098   27.949   43.655
H  -24.009   27.546   47.383
*
