# Test redundant internal optimization
#
! RKS B3LYP  Opt TightSCF SmallPrint

%basis
        Basis "6-31G"
end

%geom
Constraints
{ D 4  0  15  12  345.0   C } # D for Dihedral angle
{ D 0  15  12  16  210.0   C } # D for Dihedral angle
{ D 0  4  3  2   C } # D for Dihedral angle
{ D 4  3  2  1   C } # D for Dihedral angle
{ D 3  2  1  0   C } # D for Dihedral angle
{ D 2  1  0  4   C } # D for Dihedral angle
{ D 1  0  4  3   C } # D for Dihedral angle
{ D 16  20  19  18   C } # D for Dihedral angle
{ D 20  19  18  17   C } # D for Dihedral angle
{ D 19  18  17  16   C } # D for Dihedral angle
{ D 18  17  16  20   C } # D for Dihedral angle
{ D 17  16  20  19   C } # D for Dihedral angle
{ D 15  12  16  20   C } # D for Dihedral angle
end
end


#%pal 
#nprocs 8
#end

* xyz 0 1
C  -21.048   26.222   46.251
C  -20.361   27.558   45.944
C  -20.329   28.222   47.341
C  -20.110   27.022   48.296
O  -20.473   25.807   47.535
H  -20.833   25.428   45.533
H  -19.344   27.382   45.576
H  -20.898   28.157   45.201
H  -19.543   28.978   47.434
H  -21.289   28.710   47.548
H  -20.733   27.082   49.195
H  -19.064   26.913   48.597
C  -23.221   25.764   47.645
H  -22.624   24.897   47.956
H  -23.229   26.489   48.470
O  -22.586   26.394   46.375
C  -24.684   25.294   47.415
C  -24.747   24.153   46.393
C  -24.328   22.937   47.253
C  -24.940   23.259   48.639
O  -25.232   24.708   48.643
H  -25.303   26.158   47.168
H  -25.773   24.033   46.027
O  -23.815   24.377   45.170
H  -24.689   21.987   46.847
H  -23.235   22.881   47.316
H  -24.257   23.029   49.463
H  -25.886   22.738   48.808
H  -22.782   24.500   45.513
*
