# Test redundant internal optimization
#
! RKS B3LYP  Opt TightSCF SmallPrint

%basis
        Basis "6-31G"
end

%geom
Constraints
{ D 4  0  15  12  315.0   C } # D for Dihedral angle
{ D 0  15  12  16  225.0   C } # D for Dihedral angle
{ D 0  4  3  2   C } # D for Dihedral angle
{ D 4  3  2  1   C } # D for Dihedral angle
{ D 3  2  1  0   C } # D for Dihedral angle
{ D 2  1  0  4   C } # D for Dihedral angle
{ D 1  0  4  3   C } # D for Dihedral angle
{ D 16  20  19  18   C } # D for Dihedral angle
{ D 20  19  18  17   C } # D for Dihedral angle
{ D 19  18  17  16   C } # D for Dihedral angle
{ D 18  17  16  20   C } # D for Dihedral angle
{ D 17  16  20  19   C } # D for Dihedral angle
{ D 15  12  16  20   C } # D for Dihedral angle
end
end


#%pal 
#nprocs 8
#end

* xyz 0 1
C  -21.048   26.222   46.251
C  -20.361   27.558   45.944
C  -20.329   28.222   47.341
C  -20.110   27.022   48.296
O  -20.473   25.807   47.535
H  -20.833   25.428   45.533
H  -19.344   27.382   45.576
H  -20.898   28.157   45.201
H  -19.543   28.978   47.434
H  -21.289   28.710   47.548
H  -20.733   27.082   49.195
H  -19.064   26.913   48.597
C  -23.319   25.255   47.135
H  -22.647   24.393   47.231
H  -23.600   25.584   48.144
O  -22.586   26.394   46.375
C  -24.613   24.787   46.413
C  -24.294   24.151   45.056
C  -23.831   22.735   45.474
C  -24.728   22.419   46.697
O  -25.263   23.713   47.172
H  -25.318   25.619   46.368
H  -25.202   24.095   44.444
O  -23.212   24.927   44.257
H  -23.943   21.998   44.673
H  -22.774   22.755   45.764
H  -24.173   21.940   47.511
H  -25.584   21.792   46.436
H  -22.294   24.994   44.851
*
