# Test redundant internal optimization
#
! RKS B3LYP  Opt TightSCF SmallPrint

%basis
        Basis "6-31G"
end

%geom
Constraints
{ D 4  0  15  12  270.0   C } # D for Dihedral angle
{ D 0  15  12  16  240.0   C } # D for Dihedral angle
{ D 0  4  3  2   C } # D for Dihedral angle
{ D 4  3  2  1   C } # D for Dihedral angle
{ D 3  2  1  0   C } # D for Dihedral angle
{ D 2  1  0  4   C } # D for Dihedral angle
{ D 1  0  4  3   C } # D for Dihedral angle
{ D 16  20  19  18   C } # D for Dihedral angle
{ D 20  19  18  17   C } # D for Dihedral angle
{ D 19  18  17  16   C } # D for Dihedral angle
{ D 18  17  16  20   C } # D for Dihedral angle
{ D 17  16  20  19   C } # D for Dihedral angle
{ D 15  12  16  20   C } # D for Dihedral angle
end
end


#%pal 
#nprocs 8
#end

* xyz 0 1
C  -21.048   26.222   46.251
C  -20.361   27.558   45.944
C  -20.329   28.222   47.341
C  -20.110   27.022   48.296
O  -20.473   25.807   47.535
H  -20.833   25.428   45.533
H  -19.344   27.382   45.576
H  -20.898   28.157   45.201
H  -19.543   28.978   47.434
H  -21.289   28.710   47.548
H  -20.733   27.082   49.195
H  -19.064   26.913   48.597
C  -23.420   25.119   46.072
H  -22.741   24.293   45.824
H  -24.008   24.827   46.952
O  -22.586   26.394   46.375
C  -24.406   25.313   44.887
C  -23.656   25.559   43.573
C  -23.228   24.123   43.184
C  -24.417   23.258   43.672
O  -25.165   24.082   44.645
H  -25.129   26.089   45.147
H  -24.337   25.976   42.824
O  -22.450   26.525   43.730
H  -23.044   24.012   42.111
H  -22.307   23.849   43.712
H  -24.090   22.334   44.160
H  -25.109   23.005   42.864
H  -21.754   26.126   44.477
*
